data_block_1
_audit_creation_date         'Mon May 24 11:56:03 2021'
_audit_creation_method       'generated by GDIS v0.90'


_cell_length_a             33.9820
_cell_length_b             33.9820
_cell_length_c             33.9820
_cell_angle_alpha          90.00
_cell_angle_beta           90.00
_cell_angle_gamma          90.00


_symmetry_space_group_name_H-M   ''
_symmetry_Int_Tables_number       1


loop_
_atom_site_label
_atom_site_fract_x
_atom_site_fract_y
_atom_site_fract_z
 C    0.3914    0.4362    0.0402
 O    0.3812    0.4068    0.0674
 H    0.3539    0.4085    0.0730
 C    0.0682    0.6022    0.1129
 O    0.0632    0.5702    0.0843
 H    0.0533    0.5484    0.0973
 C    0.0602    1.0248    0.8876
 O    0.0476    0.9865    0.8788
 H    0.0359    0.9761    0.8999
 C    0.9683    0.4248    0.8976
 O    0.9921    0.4555    0.8808
 H    0.9918    0.4771    0.8970
 C    0.8849    1.0090    0.0325
 O    0.9043    0.9725    0.0426
 H    0.8856    0.9536    0.0407
 C    0.9249    0.1038    0.0361
 O    0.9317    0.0910   -0.0022
 H    0.9502    0.1086   -0.0141
 C    0.8874    0.0622    0.4037
 O    0.9272    0.0720    0.4130
 H    0.9333    0.0988    0.4144
 C    0.3772    0.4962    0.1029
 O    0.3506    0.5021    0.0698
 H    0.3384    0.4768    0.0662
 C    0.3230    0.1715    0.8185
 O    0.3355    0.1621    0.8579
 H    0.3494    0.1367    0.8564
 C    0.4551    0.6229    0.5479
 O    0.4274    0.6317    0.5159
 H    0.4074    0.6454    0.5334
 C    0.9497    0.3916    0.5697
 O    0.9146    0.4143    0.5670
 H    0.8989    0.4069    0.5855
 C    0.5341    0.3694    0.4675
 O    0.5443    0.3608    0.5050
 H    0.5702    0.3752    0.5120
 C    0.7993    0.7804    0.8764
 O    0.7737    0.7482    0.8643
 H    0.7491    0.7606    0.8503
 C    0.7274    0.8662    0.7006
 O    0.6869    0.8682    0.6932
 H    0.6822    0.8961    0.6887
 C    0.0741    0.9604    0.5531
 O    0.0652    0.9954    0.5753
 H    0.0464    1.0064    0.5631
 C    0.7014    0.8095    0.8049
 O    0.6721    0.8158    0.8342
 H    0.6513    0.8314    0.8263
 C    0.1746    0.7678    0.3324
 O    0.1693    0.7358    0.3022
 H    0.1473    0.7386    0.2868
 C    0.7100    0.7902    0.2643
 O    0.6893    0.7786    0.2988
 H    0.6623    0.7754    0.2923
 C    0.7375    0.2199    0.8273
 O    0.7452    0.2485    0.8572
 H    0.7729    0.2584    0.8522
 C    0.0566    0.4901    0.3865
 O    0.0236    0.4818    0.3627
 H    0.0046    0.4997    0.3751
 C    0.1475    0.2216    0.8074
 O    0.1395    0.1964    0.8412
 H    0.1213    0.1776    0.8325
 C    0.1736    0.8395    0.7402
 O    0.1979    0.8095    0.7572
 H    0.2151    0.8206    0.7714
 C    0.5669    0.5571    0.5781
 O    0.5390    0.5863    0.5859
 H    0.5262    0.5838    0.6089
 C    0.9423    0.4418    0.4099
 O    0.9012    0.4369    0.4163
 H    0.8946    0.4635    0.4162
 C    0.4591    0.8987    0.3842
 O    0.4261    0.9149    0.4042
 H    0.4064    0.9240    0.3882
 C    0.4991    0.0768    0.1095
 O    0.4869    0.0777    0.0693
 H    0.4655    0.0978    0.0693
 C    0.3573    0.7896    0.7045
 O    0.3581    0.7566    0.6758
 H    0.3394    0.7371    0.6813
 C    0.3002    0.6644    0.3526
 O    0.2607    0.6577    0.3361
 H    0.2465    0.6429    0.3524
 C    0.4419    0.6036    0.0056
 O    0.4684    0.6330    0.0195
 H    0.4705    0.6570    0.0028
 C    0.9440    0.5878    0.5596
 O    0.9261    0.5564    0.5822
 H    0.9152    0.5414    0.5613
 C    0.4059    0.5769    0.0992
 O    0.4441    0.5943    0.1111
 H    0.4466    0.5972    0.1368
 C    0.0552    0.6123    0.9682
 O    0.0903    0.6040    0.9470
 H    0.0922    0.5760    0.9421
 C    0.8910    0.4385   -0.0141
 O    0.9264    0.4502    0.0039
 H    0.9251    0.4419    0.0283
 C    0.1563    0.7191    0.8121
 O    0.1290    0.7459    0.8316
 H    0.1430    0.7593    0.8519
 C    0.7145    0.6324    0.7863
 O    0.7395    0.6314    0.8199
 H    0.7318    0.6538    0.8344
 C    1.0277    0.8766    0.9205
 O    0.9962    0.8625    0.8936
 H    0.9751    0.8799    0.8940
 C    0.9393    0.6339    0.0408
 O    0.9175    0.6139    0.0092
 H    0.8934    0.6237    0.0135
 C    0.2810    0.6893    0.8400
 O    0.2452    0.6727    0.8491
 H    0.2310    0.6942    0.8558
 C    0.4575    0.5107    0.9682
 O    0.4334    0.5381    0.9514
 H    0.4493    0.5604    0.9415
 C    0.1417    0.3654    0.2688
 O    0.1549    0.3578    0.3073
 H    0.1498    0.3797    0.3258
 C    0.3762    0.6702    0.8002
 O    0.4006    0.6690    0.7656
 H    0.4255    0.6763    0.7743
 C    0.8235    0.6259    0.3313
 O    0.8206    0.6368    0.3715
 H    0.8439    0.6422    0.3832
 C    0.2020    0.3028    0.8269
 O    0.1959    0.3215    0.7895
 H    0.2186    0.3148    0.7733
 C    0.4070    0.4091    0.4179
 O    0.4170    0.4410    0.4438
 H    0.4312    0.4604    0.4314
 C    0.5800    0.4177    0.3794
 O    0.5958    0.4404    0.4110
 H    0.5991    0.4656    0.3987
 C    0.2576    0.3528    0.6762
 O    0.2427    0.3125    0.6781
 H    0.2343    0.3072    0.6524
 C    0.4770    0.4233    0.6021
 O    0.5157    0.4319    0.5944
 H    0.5268    0.4155    0.6119
 C    0.3861    0.1129    0.0222
 O    0.3767    0.0739    0.0101
 H    0.3973    0.0677   -0.0103
 C    0.1592    0.1493    0.3399
 O    0.1656    0.1434    0.2982
 H    0.1408    0.1491    0.2875
 C    0.9760    0.8893    0.1107
 O    0.9942    0.8590    0.0883
 H    0.9813    0.8567    0.0651
 C    0.9494    0.8993    0.6052
 O    0.9165    0.9205    0.5884
 H    0.8992    0.9016    0.5787
 C    0.2638    0.1247    0.7720
 O    0.2469    0.1013    0.7418
 H    0.2648    0.0772    0.7408
 C    0.9846    0.9927    0.5057
 O    0.9700    1.0002    0.4663
 H    0.9931    1.0019    0.4482
 C    0.6211    0.3175    0.2303
 O    0.6335    0.2786    0.2216
 H    0.6499    0.2688    0.2431
 C    0.9683    0.5300    0.0863
 O    0.9667    0.5038    0.1197
 H    0.9410    0.5020    0.1302
 C    0.2507    0.3051    0.3319
 O    0.2237    0.2785    0.3147
 H    0.2003    0.2751    0.3300
 C    0.1042    0.4127    0.8915
 O    0.0875    0.4242    0.9284
 H    0.0962    0.4491    0.9333
 C    0.5362    0.5639    0.9390
 O    0.5129    0.5968    0.9502
 H    0.5077    0.6001    0.9795
 C    0.6719    0.6955    0.1958
 O    0.6642    0.6603    0.1761
 H    0.6503    0.6650    0.1522
 C    0.2553    0.7056    0.7268
 O    0.2957    0.6944    0.7164
 H    0.2936    0.6930    0.6887
 C    0.0373    0.1459    0.4751
 O    0.0246    0.1074    0.4754
 H    0.0270    0.0988    0.4493
 C    0.9480    0.3604   -0.0137
 O    0.9158    0.3661    0.0150
 H    0.9031    0.3897    0.0078
 C    0.8438    0.3518    0.7971
 O    0.8363    0.3783    0.7662
 H    0.8599    0.3739    0.7485
 C    0.8000    0.6038    0.7774
 O    0.8367    0.6105    0.7597
 H    0.8567    0.5995    0.7779
 C    0.8200    0.1299    0.7287
 O    0.7952    0.1401    0.7609
 H    0.7834    0.1657    0.7550
 C    0.6403    0.2464    0.8758
 O    0.6706    0.2727    0.8915
 H    0.6703    0.2987    0.8793
 C    0.0431    0.1301    0.0064
 O    0.0562    0.1203    0.0458
 H    0.0833    0.1186    0.0488
 C   -0.0055    0.9590    0.0567
 O    0.0282    0.9523    0.0325
 H    0.0459    0.9720    0.0370
 C    0.4791    0.4493    0.1023
 O    0.4568    0.4833    0.0954
 H    0.4539    0.4958    0.1190
 C    0.4032    0.9910    0.9027
 O    0.3648    1.0026    0.8948
 H    0.3499    0.9807    0.9007
 C    0.3827    0.0530    0.5102
 O    0.3522    0.0283    0.5221
 H    0.3499    0.0281    0.5491
 C    0.1434    0.3055    0.7279
 O    0.1263    0.2694    0.7144
 H    0.1366    0.2655    0.6886
 C    0.6841    0.1379    0.7940
 O    0.6610    0.1482    0.7621
 H    0.6359    0.1537    0.7705
 C    0.1381    0.3852    0.5111
 O    0.1389    0.4257    0.5207
 H    0.1107    0.4331    0.5235
 C    0.3876    0.8195    0.2415
 O    0.3690    0.8315    0.2759
 H    0.3571    0.8570    0.2711
 C    0.2513    0.8729    0.2570
 O    0.2789    0.8931    0.2332
 H    0.2658    0.9149    0.2200
 C    0.3485    0.6386    0.1496
 O    0.3609    0.6716    0.1712
 H    0.3825    0.6787    0.1566
 C    0.5805    0.8887    1.0101
 O    0.6101    0.9177    1.0078
 H    0.6184    0.9160    0.9815
 C    0.6657    0.1302    0.2932
 O    0.6554    0.1290    0.3339
 H    0.6490    0.1565    0.3400
 C    0.7424    0.3603    0.6746
 O    0.7776    0.3836    0.6797
 H    0.7958    0.3660    0.6907
 C    0.8878    0.9651    0.5209
 O    0.8652    0.9967    0.5047
 H    0.8818    1.0137    0.4946
 C    0.5878    1.0314    0.4549
 O    0.5947    0.9914    0.4454
 H    0.5722    0.9757    0.4554
 C    0.3770    0.1168    0.1447
 O    0.3725    0.1134    0.1044
 H    0.3568    0.1346    0.0951
 C    0.0571    0.0461    0.9825
 O    0.0933    0.0581    1.0016
 H    0.0990    0.0847    0.9928
 C    0.6067    0.7938    0.7601
 O    0.6036    0.8337    0.7479
 H    0.6099    0.8378    0.7201
 C    0.8197    0.2774    0.7487
 O    0.8198    0.2398    0.7323
 H    0.8452    0.2317    0.7295
 C    0.3629    0.8665    0.8704
 O    0.3704    0.9048    0.8891
 H    0.3912    0.9023    0.9077
 C    0.7757    0.3406    0.2701
 O    0.8150    0.3342    0.2641
 H    0.8287    0.3586    0.2597
 C    0.0320    0.1137    0.5735
 O   -0.0058    0.1306    0.5670
 H   -0.0090    0.1479    0.5449
 C    0.6509    0.7893    0.1747
 O    0.6295    0.7776    0.2076
 H    0.6008    0.7820    0.2039
 C    0.9275    0.0263    0.1115
 O    0.9678    0.0244    0.1282
 H    0.9675    0.0437    0.1494
 C    0.3704   -0.0136    0.0418
 O    0.3609    0.0170    0.0675
 H    0.3489    0.0377    0.0503
 C    0.5782    0.6036    0.0341
 O    0.6036    0.6221    0.0617
 H    0.5912    0.6137    0.0858
 C    0.3088    0.2096    0.2040
 O    0.3082    0.1695    0.1887
 H    0.3173    0.1531    0.2082
 C    0.4727    0.5345    0.4579
 O    0.4617    0.4946    0.4629
 H    0.4405    0.4892    0.4820
 C    1.0007    0.5512    0.9354
 O    0.9666    0.5300    0.9444
 H    0.9443    0.5449    0.9441
 C    0.8576    0.8060    0.2834
 O    0.8327    0.8191    0.3152
 H    0.8054    0.8195    0.3069
 C    0.8544    0.3362    0.1374
 O    0.8352    0.3098    0.1621
 H    0.8238    0.2916    0.1446
 C    0.3440    0.7683    0.7853
 O    0.3525    0.7583    0.8252
 H    0.3728    0.7361    0.8278
 C    0.7295    0.8633    0.8753
 O    0.7470    0.8829    0.8425
 H    0.7658    0.8659    0.8317
 C    0.9078    0.8771    0.0444
 O    0.8829    0.8769    0.0802
 H    0.8972    0.8866    0.1021
 C    0.7440    0.2970    0.3959
 O    0.7068    0.3065    0.3768
 H    0.7047    0.2935    0.3525
 C    0.6311    0.2409    0.7649
 O    0.6296    0.2264    0.7244
 H    0.6074    0.2114    0.7209
 C    0.3927    0.4548    0.5523
 O    0.4135    0.4240    0.5674
 H    0.4338    0.4159    0.5480
 C    0.5471    0.1113    0.5967
 O    0.5709    0.0775    0.5892
 H    0.5933    0.0797    0.6048
 C    0.8250    0.1164    0.1560
 O    0.7814    0.1165    0.1588
 H    0.7715    0.1365    0.1425
 C    0.3817    0.1948    0.2851
 O    0.3845    0.2353    0.2837
 H    0.4056    0.2444    0.3006
 C    0.3911    0.8803    0.6101
 O    0.4097    0.9163    0.5919
 H    0.3926    0.9373    0.6012
 C    0.8482    0.2180    0.3507
 O    0.8263    0.2446    0.3266
 H    0.8312    0.2688    0.3343
 C    0.3800    0.5380    0.4992
 O    0.4145    0.5195    0.5129
 H    0.4370    0.5288    0.4992
 C    0.7581    0.3228    0.8142
 O    0.7769    0.3429    0.8456
 H    0.7578    0.3620    0.8575
 C    0.5502    0.3951    0.0200
 O    0.5222    0.3737    0.0419
 H    0.5229    0.3489    0.0374
 C    0.4641    0.0924    0.9452
 O    0.4386    0.0697    0.9206
 H    0.4412    0.0775    0.8924
 C    0.8800    0.7128    0.3141
 O    0.8869    0.7272    0.2756
 H    0.9072    0.7116    0.2640
 C    0.1847    0.7939    0.2144
 O    0.1550    0.7898    0.2430
 H    0.1656    0.7881    0.2678
 C    0.0466    0.0157    0.4228
 O    0.0433    0.0284    0.3815
 H    0.0710    0.0358    0.3725
 C    0.1416    0.1887    0.6825
 O    0.1810    0.2002    0.6703
 H    0.1955    0.2005    0.6948
 C    0.3409    0.3380    0.3409
 O    0.3573    0.3634    0.3694
 H    0.3858    0.3671    0.3647
 C    0.5948    0.1155    0.0051
 O    0.5788    0.1261    0.0421
 H    0.5790    0.1051    0.0595
 C    0.9625    0.4963    0.5181
 O    0.9928    0.4967    0.5468
 H    1.0080    0.4740    0.5433
 C    0.2934    0.7916    0.3042
 O    0.3122    0.7644    0.2787
 H    0.3346    0.7796    0.2684
 C    0.2268    0.6498    0.1313
 O    0.2341    0.6586    0.1717
 H    0.2110    0.6691    0.1794
 C    0.9512   -0.0142    0.6270
 O    0.9672    0.0247    0.6292
 H    0.9544    0.0380    0.6497
 C    0.6225    0.4889    0.6132
 O    0.6066    0.4502    0.6158
 H    0.5791    0.4526    0.6128
 C    0.3798    0.1083    0.4224
 O    0.4123    0.1307    0.4117
 H    0.4076    0.1436    0.3888
 C    0.1011    0.1028    0.6247
 O    0.1248    0.0880    0.5923
 H    0.1477    0.0884    0.6000
 C    0.8754    0.5371    0.4956
 O    0.8515    0.5068    0.5106
 H    0.8269    0.5190    0.5216
 C    0.0409    0.4023    0.0972
 O    0.0048    0.3977    0.1182
 H    0.0007    0.3716    0.1216
 C    0.6449    0.2508    0.6292
 O    0.6861    0.2529    0.6232
 H    0.6934    0.2798    0.6196
 C    0.9043    0.0612    0.5451
 O    0.9202    0.0927    0.5661
 H    0.9003    0.1028    0.5793
 C    0.0649    0.4057    0.6038
 O    0.0821    0.4077    0.5642
 H    0.0771    0.4338    0.5534
 C    0.5077    0.6493    0.4880
 O    0.5240    0.6277    0.4554
 H    0.5485    0.6342    0.4517
 C    0.8542    0.2087    0.1837
 O    0.8693    0.2297    0.2170
 H    0.8745    0.2093    0.2376
 C    0.6252    0.4548    0.0818
 O    0.6408    0.4912    0.0693
 H    0.6535    0.4919    0.0453
 C    0.3700    0.6496    0.6293
 O    0.4027    0.6263    0.6152
 H    0.4005    0.5988    0.6242
 C    0.3268    0.3065    0.8815
 O    0.3541    0.2752    0.8855
 H    0.3499    0.2615    0.8614
 C    0.4024    0.5906    0.8792
 O    0.4397    0.5729    0.8878
 H    0.4369    0.5596    0.9092
 C    0.8638    0.5110    0.0523
 O    0.8705    0.5273    0.0141
 H    0.8795    0.5533    0.0167
 C    0.7048    0.7847    0.3999
 O    0.6915    0.7459    0.3948
 H    0.6900    0.7424    0.3665
 C    0.0461    0.6219    0.5186
 O    0.0046    0.6203    0.5196
 H   -0.0049    0.5962    0.5103
 C    0.8480    0.6747    0.8261
 O    0.8555    0.6320    0.8260
 H    0.8741    0.6259    0.8461
 C    0.1211    0.4234    0.0608
 O    0.1385    0.4265    0.0222
 H    0.1668    0.4263    0.0254
 C    0.5757    0.9536    0.9218
 O    0.5776    0.9794    0.8889
 H    0.5971    0.9993    0.8944
 C    0.5097    0.4075    0.8874
 O    0.4896    0.4001    0.9225
 H    0.4633    0.3919    0.9165
 C    0.2977    0.6079    0.2606
 O    0.3294    0.6360    0.2553
 H    0.3531    0.6255    0.2606
 C    0.5063    0.0509    0.3760
 O    0.5137    0.0894    0.3899
 H    0.4944    0.1073    0.3777
 C    0.2513    0.6869    0.2560
 O    0.2211    0.7096    0.2363
 H    0.2046    0.7238    0.2549
 C    0.8347    0.7230    0.2023
 O    0.8176    0.6990    0.1735
 H    0.8120    0.7134    0.1507
 C    0.2392    0.2090    0.3732
 O    0.2621    0.1995    0.3387
 H    0.2818    0.2191    0.3378
 C    0.8903    0.5796    0.9230
 O    0.9076    0.5585    0.8935
 H    0.9184    0.5788    0.8786
 C    0.1330    0.7155    0.6857
 O    0.1259    0.7202    0.7269
 H    0.1264    0.6985    0.7407
 C    0.6323    0.7598    0.6501
 O    0.6578    0.7676    0.6828
 H    0.6434    0.7776    0.7050
 C    0.5504    0.5038    0.0340
 O    0.5457    0.5094   -0.0084
 H    0.5209    0.5263   -0.0133
 C    0.1395   -0.0229    0.4695
 O    0.1438    0.0147    0.4882
 H    0.1200    0.0212    0.5040
 C    0.7204    0.8732    0.1563
 O    0.7503    0.8974    0.1391
 H    0.7755    0.8858    0.1350
 C    0.8793    0.9204    0.9220
 O    0.8665    0.8829    0.9046
 H    0.8810    0.8766    0.8836
 C    0.4642    0.1128    0.5383
 O    0.4848    0.1117    0.5029
 H    0.4698    0.0963    0.4854
 C    0.7236    0.6844    0.6426
 O    0.7463    0.6580    0.6200
 H    0.7661    0.6469    0.6383
 C    0.7775    0.6428    0.2157
 O    0.8085    0.6257    0.2408
 H    0.8155    0.6438    0.2587
 C    0.6314    0.4919    0.8844
 O    0.5946    0.4732    0.8836
 H    0.5944    0.4465    0.8955
 C    0.1589    0.3398    0.6197
 O    0.1830    0.3055    0.6272
 H    0.1787    0.2977    0.6529
 C    0.1339    0.6681    0.2131
 O    0.1593    0.6766    0.1826
 H    0.1601    0.7050    0.1747
 C    0.8152    0.1258    0.2643
 O    0.7775    0.1268    0.2801
 H    0.7783    0.1381    0.3069
 C    0.2143    0.2367    0.2404
 O    0.1932    0.2008    0.2440
 H    0.1794    0.2016    0.2699
 C    0.7656    0.2210    0.6547
 O    0.7392    0.1899    0.6556
 H    0.7538    0.1686    0.6680
 C    0.0559    0.5452    0.5877
 O    0.0782    0.5492    0.6256
 H    0.1054    0.5382    0.6239
 C    0.5621    0.8885    0.5132
 O    0.5351    0.8565    0.5069
 H    0.5308    0.8523    0.4804
 C    0.8588    0.8305    0.7828
 O    0.8300    0.7979    0.7776
 H    0.8390    0.7721    0.7877
 C    0.5607    1.0074    0.0877
 O    0.5988    0.9903    0.0794
 H    0.5972    0.9619    0.0766
 C    0.5300    0.5622    0.1055
 O    0.5174    0.5234    0.1139
 H    0.5293    0.5169    0.1369
 C    0.4828    0.9411    0.5906
 O    0.5182    0.9202    0.5860
 H    0.5355    0.9251    0.6063
 C    0.4437    0.8766    0.0444
 O    0.4044    0.8906    0.0446
 H    0.4061    0.9185    0.0366
 C    0.1061    0.9382    0.0310
 O    0.1121    0.9057    0.0545
 H    0.1361    0.8959    0.0483
 C    0.6133   -0.0008    0.5426
 O    0.5755    0.0124    0.5568
 H    0.5577    0.0179    0.5376
 C    0.0923    0.4952    0.8776
 O    0.0800    0.5136    0.9126
 H    0.0938    0.5376    0.9145
 C    0.0461    0.4898    0.0116
 O    0.0181    0.4636   -0.0024
 H   -0.0079    0.4732   -0.0006
 C    0.1119    0.1166    0.8862
 O    0.1322    0.1166    0.8495
 H    0.1572    0.1062    0.8572
 C    0.2204    0.7591    0.6500
 O    0.2125    0.7229    0.6325
 H    0.2289    0.7173    0.6127
 C    0.8147    0.3130    0.6388
 O    0.8388    0.3127    0.6732
 H    0.8229    0.3167    0.6944
 C    0.6714    0.3316    0.1330
 O    0.6312    0.3252    0.1318
 H    0.6224    0.3312    0.1046
 C    0.2387    0.1794    0.8573
 O    0.2289    0.2173    0.8750
 H    0.2510    0.2332    0.8666
 C    0.6569    0.3509    0.7759
 O    0.6519    0.3283    0.8123
 H    0.6639    0.3025    0.8080
 C    0.9986    0.8650    0.4429
 O    0.9686    0.8644    0.4740
 H    0.9592    0.8396    0.4779
 C    0.8038    0.7290    0.3869
 O    0.7656    0.7369    0.4025
 H    0.7652    0.7266    0.4288
 C    0.3580    0.8572    0.7714
 O    0.3581    0.8932    0.7498
 H    0.3737    0.9122    0.7625
 C    0.9750    0.9866    0.9599
 O    0.9658    0.9501    0.9475
 H    0.9748    0.9303    0.9620
 C    0.2048    0.7806    0.8695
 O    0.2164    0.8204    0.8832
 H    0.2052    0.8248    0.9091
 C    0.5955    0.3803    0.5935
 O    0.5928    0.3992    0.5551
 H    0.6095    0.3847    0.5365
 C    0.8617    0.2232    0.8374
 O    0.8310    0.1942    0.8360
 H    0.8129    0.2022    0.8182
 C    0.7616    0.1763    0.3800
 O    0.7251    0.1735    0.3605
 H    0.7255    0.1472    0.3489
 C    0.2353    0.1412    0.1242
 O    0.2724    0.1593    0.1177
 H    0.2920    0.1407    0.1282
 C    0.1440    0.6476    0.8853
 O    0.1229    0.6231    0.8606
 H    0.1074    0.6418    0.8441
 C    0.7617    0.7642    0.1574
 O    0.7498    0.7514    0.1191
 H    0.7693    0.7356    0.1096
 C    0.3339    0.7665    0.1283
 O    0.3316    0.8041    0.1463
 H    0.3545    0.8173    0.1424
 C    0.6387    0.2290    0.3394
 O    0.6040    0.2526    0.3341
 H    0.5961    0.2497    0.3059
 C    0.3747    0.9373    0.4605
 O    0.3655    0.9139    0.4940
 H    0.3861    0.9160    0.5145
 C    0.7505    0.8618    0.3670
 O    0.7831    0.8474    0.3906
 H    0.8009    0.8373    0.3724
 C    0.8969    0.5979    0.4150
 O    0.9388    0.5896    0.4199
 H    0.9541    0.6030    0.3965
 C    0.6237    0.1508    0.8587
 O    0.6200    0.1820    0.8322
 H    0.6270    0.2097    0.8432
 C    0.6051    0.4254    0.9584
 O    0.5923    0.3917    0.9388
 H    0.6029    0.3916    0.9144
 C    0.2608    0.3342    0.2221
 O    0.2792    0.3066    0.1973
 H    0.2860    0.3153    0.1740
 C    0.5165    0.5373    0.8469
 O    0.5003    0.5046    0.8671
 H    0.5149    0.4841    0.8649
 C    0.3453    0.3231    0.7123
 O    0.3755    0.2968    0.7283
 H    0.3908    0.2874    0.7082
 C    0.5982    0.7711    0.2944
 O    0.6075    0.7300    0.3001
 H    0.5930    0.7189    0.3202
 C    0.2359    0.7354    0.3928
 O    0.2771    0.7318    0.3948
 H    0.2815    0.7065    0.4017
 C    0.8312    0.8541    0.2031
 O    0.8332    0.8392    0.1643
 H    0.8377    0.8637    0.1503
 C    0.1228    0.8581    0.1183
 O    0.0851    0.8782    0.1190
 H    0.0857    0.9062    0.1135
 C    0.6427    0.5348    0.9917
 O    0.6525    0.4936    0.9857
 H    0.6574    0.4886    0.9609
 C    0.4494    0.5344    0.6204
 O    0.4707    0.5668    0.6413
 H    0.4507    0.5846    0.6503
 C    0.2478    0.1566    0.6551
 O    0.2740    0.1772    0.6803
 H    0.2858    0.1596    0.6981
 C    0.8350    0.7147    0.7124
 O    0.8419    0.7435    0.6827
 H    0.8565    0.7664    0.6952
 C    0.5011    0.9565    0.0602
 O    0.4757    0.9859    0.0480
 H    0.4924    1.0055    0.0335
 C    0.5153    0.0318    0.8532
 O    0.4855    0.0567    0.8684
 H    0.4817    0.0776    0.8487
 C    0.3187    0.3484    0.7836
 O    0.2844    0.3549    0.7618
 H    0.2923    0.3526    0.7338
 C    0.4060    0.1072    0.6141
 O    0.3820    0.0967    0.5802
 H    0.3697    0.1208    0.5701
 C    0.6353    0.5151    0.5234
 O    0.6204    0.5413    0.4931
 H    0.6393    0.5534    0.4780
 C    0.9092    0.9105    0.4040
 O    0.9068    0.9441    0.4277
 H    0.8918    0.9635    0.4128
 C    0.1810    0.6392    0.3030
 O    0.1591    0.6310    0.3385
 H    0.1377    0.6491    0.3392
 C    0.2189    0.8111    0.1275
 O    0.2363    0.8447    0.1117
 H    0.2186    0.8595    0.0962
 C    0.5784    0.5969    0.3954
 O    0.5794    0.5558    0.4085
 H    0.5782    0.5384    0.3884
 C    0.3931    0.0153    0.6197
 O    0.4164    0.0064    0.6510
 H    0.4319   -0.0151    0.6436
 C    0.6644    0.2374    0.1410
 O    0.6664    0.2064    0.1694
 H    0.6420    0.1927    0.1679
 C    0.6415    0.8539    0.3486
 O    0.6545    0.8585    0.3091
 H    0.6726    0.8783    0.3087
 C    0.3778    0.7229    0.2595
 O    0.3802    0.6812    0.2635
 H    0.4079    0.6719    0.2681
 C    0.1787    0.6398    0.7822
 O    0.1400    0.6251    0.7718
 H    0.1396    0.6194    0.7439
 C    0.6459    0.7033    0.8363
 O    0.6513    0.6872    0.8763
 H    0.6575    0.6593    0.8754
 C    0.2235    0.8625    0.6419
 O    0.2578    0.8620    0.6178
 H    0.2565    0.8816    0.5996
 C    0.7374    0.2574    0.2226
 O    0.7386    0.2646    0.2625
 H    0.7433    0.2415    0.2795
 C    0.0987    0.9993    0.1138
 O    0.0662    0.9883    0.0900
 H    0.0776    0.9717    0.0697
 C    0.1165    0.1957    0.1913
 O    0.1143    0.2215    0.2226
 H    0.1262    0.2446    0.2179
 C    0.0562    0.6059    0.4286
 O    0.0902    0.5928    0.4085
 H    0.0945    0.5659    0.4037
 C    0.0358    0.4484    0.4949
 O    0.0433    0.4894    0.4864
 H    0.0505    0.4947    0.4592
 C    0.1129    0.2828    0.3197
 O    0.1377    0.2979    0.3519
 H    0.1538    0.3178    0.3375
 C    0.1268    0.5552    0.5083
 O    0.1171    0.5188    0.5263
 H    0.1114    0.4985    0.5062
 C    0.2852    0.1068    0.2927
 O    0.3138    0.1179    0.2658
 H    0.3212    0.1446    0.2712
 C    0.2404    0.2400    0.6213
 O    0.2640    0.2574    0.5922
 H    0.2623    0.2842    0.5906
 C    0.6069    0.6205    0.4787
 O    0.5943    0.6566    0.4969
 H    0.5732    0.6515    0.5139
 C    0.3550    0.3377    0.2524
 O    0.3609    0.3149    0.2184
 H    0.3758    0.3278    0.1999
 C    0.3919    0.4060    0.8909
 O    0.4070    0.4338    0.9195
 H    0.4172    0.4595    0.9038
 C    0.5009    0.4197    0.3852
 O    0.4770    0.4404    0.3547
 H    0.4796    0.4658    0.3616
 C    0.0419    0.8794    0.5388
 O    0.0727    0.8889    0.5124
 H    0.0889    0.9107    0.5226
 C    0.1380    0.8321    0.6362
 O    0.1215    0.8729    0.6385
 H    0.1387    0.8897    0.6552
 C    0.9187    0.9916    0.8662
 O    0.9593    0.9785    0.8633
 H    0.9750    0.9926    0.8479
 C    0.4898    0.9955    0.9553
 O    0.4890    0.9549    0.9656
 H    0.4909    0.9568    0.9911
 C    0.7363    0.7207    0.7842
 O    0.7730    0.7018    0.7794
 H    0.7899    0.7200    0.7864
 C    0.9153    0.3961    0.1070
 O    0.9236    0.4355    0.1059
 H    0.9005    0.4502    0.1037
 C    0.7243    0.7913    0.6465
 O    0.7624    0.7901    0.6644
 H    0.7789    0.8116    0.6549
 C    0.4739    0.8609    0.9486
 O    0.4428    0.8881    0.9568
 H    0.4210    0.8741    0.9713
 C    0.6947    0.6364    0.2981
 O    0.6849    0.6739    0.3116
 H    0.6737    0.6897    0.2915
 C    0.5897    0.8916    0.4253
 O    0.5847    0.9142    0.3910
 H    0.6056    0.9089    0.3738
 C    0.7756    0.6456    0.1222
 O    0.7404    0.6685    0.1090
 H    0.7470    0.6949    0.1119
 C    0.9044    0.1262    0.4777
 O    0.9439    0.1127    0.4810
 H    0.9523    0.0986    0.4597
 C    0.0990    0.3910    0.4195
 O    0.1010    0.3796    0.3794
 H    0.0931    0.3530    0.3783
 C    0.4270    1.0045    0.3831
 O    0.3898    0.9923    0.3661
 H    0.3938    0.9941    0.3403
 C    0.1206    0.5302    0.1116
 O    0.1157    0.4911    0.1256
 H    0.1246    0.4724    0.1056
 C    0.2490    0.6280    0.6531
 O    0.2711    0.6531    0.6270
 H    0.2907    0.6400    0.6177
 C   -0.0030    0.1137    0.3887
 O    0.0067    0.0957    0.3523
 H    0.0295    0.1092    0.3417
 C    0.0400    0.9376    0.3823
 O    0.0632    0.9051    0.3957
 H    0.0529    0.8835    0.3829
 C    0.8212    0.8445    0.6950
 O    0.8517    0.8180    0.6872
 H    0.8747    0.8320    0.6818
 C    0.8957    0.1177    0.8991
 O    0.9298    0.1081    0.9221
 H    0.9454    0.1297    0.9224
 C    0.6050    0.8703    0.8879
 O    0.5692    0.8730    0.9084
 H    0.5725    0.8870    0.9316
 C    0.1207    0.9476    0.9071
 O    0.1355    0.9872    0.8990
 H    0.1140    1.0018    0.9031
 C    0.6806    0.3655    0.2477
 O    0.7064    0.3601    0.2801
 H    0.7070    0.3335    0.2874
 C    0.6055    0.5913    0.8846
 O    0.6299    0.6147    0.8605
 H    0.6268    0.6423    0.8666
 C    0.1622    0.1440    0.7748
 O    0.1790    0.1135    0.7503
 H    0.1561    0.0967    0.7480
 C    0.9856    0.3621    0.4685
 O    0.9439    0.3735    0.4710
 H    0.9293    0.3505    0.4778
 C    0.2675    0.2747    0.1256
 O    0.2953    0.2432    0.1237
 H    0.2939    0.2287    0.1470
 C    0.4567    0.9033    0.4825
 O    0.4635    0.9450    0.4851
 H    0.4668    0.9551    0.4582
 C    0.5235    0.4659    0.4941
 O    0.5581    0.4609    0.5176
 H    0.5785    0.4606    0.4980
 C    0.6297    0.1407    0.1518
 O    0.6097    0.1297    0.1179
 H    0.6199    0.1060    0.1143
 C    0.2262    0.1330    0.2097
 O    0.1852    0.1313    0.2186
 H    0.1682    0.1337    0.1959
 C    0.6123    0.1851    0.2368
 O    0.6245    0.2188    0.2601
 H    0.6067    0.2404    0.2527
 C    0.4157    0.9662    0.1290
 O    0.4559    0.9786    0.1330
 H    0.4589    1.0057    0.1396
 C    0.1754    0.8492    0.3325
 O    0.1879    0.8483    0.2925
 H    0.1733    0.8651    0.2754
 C    0.9910    0.0954    0.8685
 O    0.9969    0.1243    0.8980
 H    0.9720    0.1247    0.9100
 C    0.4906    0.0120    0.4858
 O    0.4701    0.0450    0.4684
 H    0.4594    0.0597    0.4884
 C    0.1817    0.3424    0.1889
 O    0.1697    0.3196    0.1570
 H    0.1874    0.2972    0.1589
 C    0.8452    0.6387    0.6724
 O    0.8545    0.6169    0.6365
 H    0.8792    0.6275    0.6259
 C    0.6252    0.0366    0.9327
 O    0.5983    0.0521    0.9042
 H    0.6087    0.0778    0.8955
 C    0.6586    0.6786    0.7064
 O    0.6258    0.6693    0.6817
 H    0.6019    0.6739    0.6983
 C    0.1116    0.0973    0.1249
 O    0.1227    0.0735    0.0906
 H    0.1457    0.0850    0.0795
 C    0.1500    0.5155    0.9783
 O    0.1131    0.5364    0.9843
 H    0.1175    0.5653    0.9825
 C    0.6824    0.2873    0.7035
 O    0.7128    0.2947    0.7308
 H    0.7058    0.2801    0.7518
 C    0.2614    0.8768    0.3646
 O    0.2662    0.8345    0.3674
 H    0.2576    0.8210    0.3467
 C    0.5190    0.9012    0.1222
 O    0.5567    0.9011    0.1045
 H    0.5716    0.9237    0.1165
 C    0.3624    0.1425    0.6829
 O    0.3498    0.1367    0.7238
 H    0.3251    0.1230    0.7208
 C    0.7580    0.7196    0.2823
 O    0.7955    0.7159    0.3013
 H    0.8159    0.7316    0.2863
 C    0.8858    0.6058    0.1193
 O    0.8574    0.6345    0.1338
 H    0.8390    0.6376    0.1131
 C    0.2575    0.3836    0.8640
 O    0.2344    0.3782    0.8314
 H    0.2169    0.3545    0.8359
 C    0.6016    0.9322    0.6046
 O    0.6127    0.9003    0.6292
 H    0.6004    0.9009    0.6551
 C    0.0962    0.0884    0.5045
 O    0.1215    0.1066    0.4762
 H    0.1323    0.0868    0.4617
 C    0.3338    0.2424    0.7785
 O    0.2964    0.2369    0.7570
 H    0.2997    0.2515    0.7334
 C    0.3700    0.5096    0.9921
 O    0.3328    0.4926    0.9764
 H    0.3377    0.4650    0.9774
 C    0.4976    0.0357    0.6274
 O    0.5283    0.0077    0.6345
 H    0.5525    0.0208    0.6315
 C    0.2713    0.8027    0.7663
 O    0.2747    0.8233    0.8017
 H    0.2989    0.8196    0.8138
 C    0.2970    0.6352    0.7877
 O    0.2971    0.6071    0.7563
 H    0.3152    0.5890    0.7632
 C    0.7831    0.3665    0.1846
 O    0.7524    0.3920    0.1745
 H    0.7311    0.3806    0.1842
 C    0.6586    0.1615    0.6638
 O    0.6832    0.1751    0.6963
 H    0.6772    0.1990    0.7053
 C    0.5013    0.9404    0.8850
 O    0.4776    0.9461    0.8515
 H    0.4530    0.9560    0.8654
 C    0.7110    0.1292    0.2086
 O    0.7306    0.1663    0.2150
 H    0.7273    0.1757    0.2415
 C    0.9042    0.8713    0.4984
 O    0.8756    0.8835    0.5280
 H    0.8613    0.9049    0.5211
 C    0.2586    0.7558    0.1728
 O    0.2437    0.7284    0.1450
 H    0.2443    0.7019    0.1521
 C    0.3793    0.2499    0.1678
 O    0.3781    0.2095    0.1559
 H    0.3549    0.1996    0.1629
 C    0.3798    0.5652    0.3990
 O    0.4096    0.5470    0.3743
 H    0.4301    0.5630    0.3734
 C    0.6520    0.9661    0.0355
 O    0.6602    0.9861    0.0009
 H    0.6874    0.9931    0.0004
 C    0.9567    0.4658    0.6307
 O    0.9989    0.4735    0.6303
 H    1.0053    0.4772    0.6571
 C    0.6482    0.8743    0.2251
 O    0.6398    0.8806    0.1843
 H    0.6321    0.8568    0.1718
 C    0.8692    0.2147    0.6606
 O    0.8613    0.2345    0.6242
 H    0.8811    0.2555    0.6187
 C    0.8483    0.3579    0.3294
 O    0.8252    0.3727    0.3600
 H    0.8414    0.3806    0.3824
 C    0.3723    0.4880    0.8768
 O    0.4098    0.4897    0.8614
 H    0.4150    0.4654    0.8486
 C    0.7479    0.1898    0.1159
 O    0.7480    0.2229    0.1427
 H    0.7701    0.2208    0.1603
Zn    0.7465    0.9980    0.8777
Zn    0.9965    0.7480    0.6277
Zn    0.7478    0.4994    0.6277
Zn    0.9978    0.7494    0.8776
Zn    0.8724    0.7478    0.5021
Zn    0.7468    0.6237    0.5019
Zn    0.6223    0.7491    0.5034
Zn    0.7481    0.8736    0.5032
Zn    0.9968    0.8737    0.7518
Zn    0.9981    0.6237    0.7533
Zn    0.6223    0.9979    0.7521
Zn    0.8723    0.9992    0.7534
Zn    0.2465    0.4980    0.3777
Zn    0.4965    0.2480    0.1277
Zn    0.2478    0.9994    0.1277
Zn    0.4978    0.2494    0.3776
Zn    0.3724    0.2478    0.0021
Zn    0.2468    0.1237    0.0019
Zn    0.1223    0.2491    0.0034
Zn    0.2481    0.3736    0.0032
Zn    0.4968    0.3737    0.2518
Zn    0.4981    0.1237    0.2533
Zn    0.1223    0.4979    0.2521
Zn    0.3723    0.4992    0.2534
Zn    0.7465    0.4980    0.3777
Zn    0.9965    0.2480    0.1277
Zn    0.7478    0.9994    0.1277
Zn    0.9978    0.2494    0.3776
Zn    0.8724    0.2478    0.0021
Zn    0.7468    0.1237    0.0019
Zn    0.6223    0.2491    0.0034
Zn    0.7481    0.3736    0.0032
Zn    0.9968    0.3737    0.2518
Zn    0.9981    0.1237    0.2533
Zn    0.6223    0.4979    0.2521
Zn    0.8723    0.4992    0.2534
Zn    0.2465    0.9980    0.3777
Zn    0.4965    0.7480    0.1277
Zn    0.2478    0.4994    0.1277
Zn    0.4978    0.7494    0.3776
Zn    0.3724    0.7478    0.0021
Zn    0.2468    0.6237    0.0019
Zn    0.1223    0.7491    0.0034
Zn    0.2481    0.8736    0.0032
Zn    0.4968    0.8737    0.2518
Zn    0.4981    0.6237    0.2533
Zn    0.1223    0.9979    0.2521
Zn    0.3723    0.9992    0.2534
Zn    0.7465    0.9980    0.3777
Zn    0.9965    0.7480    0.1277
Zn    0.7478    0.4994    0.1277
Zn    0.9978    0.7494    0.3776
Zn    0.8724    0.7478    0.0021
Zn    0.7468    0.6237    0.0019
Zn    0.6223    0.7491    0.0034
Zn    0.7481    0.8736    0.0032
Zn    0.9968    0.8737    0.2518
Zn    0.9981    0.6237    0.2533
Zn    0.6223    0.9979    0.2521
Zn    0.8723    0.9992    0.2534
Zn    0.2465    0.4980    0.8777
Zn    0.4965    0.2480    0.6277
Zn    0.2478    0.9994    0.6277
Zn    0.4978    0.2494    0.8776
Zn    0.3724    0.2478    0.5021
Zn    0.2468    0.1237    0.5019
Zn    0.1223    0.2491    0.5034
Zn    0.2481    0.3736    0.5032
Zn    0.4968    0.3737    0.7518
Zn    0.4981    0.1237    0.7533
Zn    0.1223    0.4979    0.7521
Zn    0.3723    0.4992    0.7534
Zn    0.7465    0.4980    0.8777
Zn    0.9965    0.2480    0.6277
Zn    0.7478    0.9994    0.6277
Zn    0.9978    0.2494    0.8776
Zn    0.8724    0.2478    0.5021
Zn    0.7468    0.1237    0.5019
Zn    0.6223    0.2491    0.5034
Zn    0.7481    0.3736    0.5032
Zn    0.9968    0.3737    0.7518
Zn    0.9981    0.1237    0.7533
Zn    0.6223    0.4979    0.7521
Zn    0.8723    0.4992    0.7534
Zn    0.2465    0.9980    0.8777
Zn    0.4965    0.7480    0.6277
Zn    0.2478    0.4994    0.6277
Zn    0.4978    0.7494    0.8776
Zn    0.3724    0.7478    0.5021
Zn    0.2468    0.6237    0.5019
Zn    0.1223    0.7491    0.5034
Zn    0.2481    0.8736    0.5032
Zn    0.4968    0.8737    0.7518
Zn    0.4981    0.6237    0.7533
Zn    0.1223    0.9979    0.7521
Zn    0.3723    0.9992    0.7534
He    0.7267    0.9901    0.8621
He    0.7668    0.5058    0.8624
He    0.7387    0.5181    0.8931
He    0.7545    0.9780    0.8930
He    0.9887    0.7681    0.6431
He    0.5045    0.7280    0.6431
He    0.9767    0.7401    0.6121
He    0.5168    0.7558    0.6125
He    0.7276    0.5068    0.6430
He    0.7682    0.9921    0.6429
He    0.7553    0.5196    0.6122
He    0.7405    0.9790    0.6125
He    0.5053    0.7696    0.8623
He    0.9905    0.7289    0.8625
He    0.9776    0.7568    0.8930
He    0.5182    0.7420    0.8929
He    0.8568    0.7279    0.9941
He    0.8571    0.7681    0.5099
He    0.8877    0.7558    0.9820
He    0.8878    0.7400    0.5221
He    0.7267    0.6390    0.5097
He    0.7668    0.6391    0.9941
He    0.7388    0.6081    0.9819
He    0.7545    0.6084    0.5221
He    0.6376    0.7696    0.9960
He    0.6377    0.7289    0.5108
He    0.6072    0.7418    0.9829
He    0.6068    0.7566    0.5235
He    0.7682    0.8581    0.5107
He    0.7276    0.8585    0.9959
He    0.7407    0.8889    0.5235
He    0.7555    0.8890    0.9830
He    0.9888    0.8581    0.7320
He    0.5045    0.8585    0.7721
He    0.9767    0.8890    0.7598
He    0.5168    0.8891    0.7440
He    0.9906    0.6389    0.7735
He    0.5055    0.6390    0.7330
He    0.5182    0.6081    0.7608
He    0.9776    0.6085    0.7460
He    0.6377    0.5058    0.7320
He    0.6378    0.9899    0.7721
He    0.6067    0.9779    0.7441
He    0.6071    0.5180    0.7599
He    0.8572    0.9919    0.7329
He    0.8568    0.5067    0.7735
He    0.8876    0.5195    0.7460
He    0.8877    0.9789    0.7608
He    0.2267    0.4901    0.3621
He    0.2668    0.0058    0.3624
He    0.2387    0.0181    0.3931
He    0.2545    0.4780    0.3930
He    0.4887    0.2681    0.1431
He    0.0045    0.2280    0.1431
He    0.4767    0.2401    0.1121
He    0.0168    0.2558    0.1125
He    0.2276    0.0068    0.1430
He    0.2682    0.4921    0.1429
He    0.2553    0.0196    0.1122
He    0.2405    0.4790    0.1125
He    0.0053    0.2696    0.3623
He    0.4905    0.2289    0.3625
He    0.4776    0.2568    0.3930
He    0.0182    0.2420    0.3929
He    0.3568    0.2279    0.4941
He    0.3571    0.2681    0.0099
He    0.3877    0.2558    0.4820
He    0.3878    0.2400    0.0221
He    0.2267    0.1390    0.0097
He    0.2668    0.1391    0.4941
He    0.2388    0.1081    0.4819
He    0.2545    0.1084    0.0221
He    0.1376    0.2696    0.4960
He    0.1377    0.2289    0.0108
He    0.1072    0.2418    0.4829
He    0.1068    0.2566    0.0235
He    0.2682    0.3581    0.0107
He    0.2276    0.3585    0.4959
He    0.2407    0.3889    0.0235
He    0.2555    0.3890    0.4830
He    0.4888    0.3581    0.2320
He    0.0045    0.3585    0.2721
He    0.4767    0.3890    0.2598
He    0.0168    0.3891    0.2440
He    0.4906    0.1389    0.2735
He    0.0055    0.1390    0.2330
He    0.0182    0.1081    0.2608
He    0.4776    0.1085    0.2460
He    0.1377    0.0058    0.2320
He    0.1378    0.4899    0.2721
He    0.1067    0.4779    0.2441
He    0.1071    0.0180    0.2599
He    0.3572    0.4919    0.2329
He    0.3568    0.0067    0.2735
He    0.3876    0.0195    0.2460
He    0.3877    0.4789    0.2608
He    0.7267    0.4901    0.3621
He    0.7668    0.0058    0.3624
He    0.7387    0.0181    0.3931
He    0.7545    0.4780    0.3930
He    0.9887    0.2681    0.1431
He    0.5045    0.2280    0.1431
He    0.9767    0.2401    0.1121
He    0.5168    0.2558    0.1125
He    0.7276    0.0068    0.1430
He    0.7682    0.4921    0.1429
He    0.7553    0.0196    0.1122
He    0.7405    0.4790    0.1125
He    0.5053    0.2696    0.3623
He    0.9905    0.2289    0.3625
He    0.9776    0.2568    0.3930
He    0.5182    0.2420    0.3929
He    0.8568    0.2279    0.4941
He    0.8571    0.2681    0.0099
He    0.8877    0.2558    0.4820
He    0.8878    0.2400    0.0221
He    0.7267    0.1390    0.0097
He    0.7668    0.1391    0.4941
He    0.7388    0.1081    0.4819
He    0.7545    0.1084    0.0221
He    0.6376    0.2696    0.4960
He    0.6377    0.2289    0.0108
He    0.6072    0.2418    0.4829
He    0.6068    0.2566    0.0235
He    0.7682    0.3581    0.0107
He    0.7276    0.3585    0.4959
He    0.7407    0.3889    0.0235
He    0.7555    0.3890    0.4830
He    0.9888    0.3581    0.2320
He    0.5045    0.3585    0.2721
He    0.9767    0.3890    0.2598
He    0.5168    0.3891    0.2440
He    0.9906    0.1389    0.2735
He    0.5055    0.1390    0.2330
He    0.5182    0.1081    0.2608
He    0.9776    0.1085    0.2460
He    0.6377    0.0058    0.2320
He    0.6378    0.4899    0.2721
He    0.6067    0.4779    0.2441
He    0.6071    0.0180    0.2599
He    0.8572    0.4919    0.2329
He    0.8568    0.0067    0.2735
He    0.8876    0.0195    0.2460
He    0.8877    0.4789    0.2608
He    0.2267    0.9901    0.3621
He    0.2668    0.5058    0.3624
He    0.2387    0.5181    0.3931
He    0.2545    0.9780    0.3930
He    0.4887    0.7681    0.1431
He    0.0045    0.7280    0.1431
He    0.4767    0.7401    0.1121
He    0.0168    0.7558    0.1125
He    0.2276    0.5068    0.1430
He    0.2682    0.9921    0.1429
He    0.2553    0.5196    0.1122
He    0.2405    0.9790    0.1125
He    0.0053    0.7696    0.3623
He    0.4905    0.7289    0.3625
He    0.4776    0.7568    0.3930
He    0.0182    0.7420    0.3929
He    0.3568    0.7279    0.4941
He    0.3571    0.7681    0.0099
He    0.3877    0.7558    0.4820
He    0.3878    0.7400    0.0221
He    0.2267    0.6390    0.0097
He    0.2668    0.6391    0.4941
He    0.2388    0.6081    0.4819
He    0.2545    0.6084    0.0221
He    0.1376    0.7696    0.4960
He    0.1377    0.7289    0.0108
He    0.1072    0.7418    0.4829
He    0.1068    0.7566    0.0235
He    0.2682    0.8581    0.0107
He    0.2276    0.8585    0.4959
He    0.2407    0.8889    0.0235
He    0.2555    0.8890    0.4830
He    0.4888    0.8581    0.2320
He    0.0045    0.8585    0.2721
He    0.4767    0.8890    0.2598
He    0.0168    0.8891    0.2440
He    0.4906    0.6389    0.2735
He    0.0055    0.6390    0.2330
He    0.0182    0.6081    0.2608
He    0.4776    0.6085    0.2460
He    0.1377    0.5058    0.2320
He    0.1378    0.9899    0.2721
He    0.1067    0.9779    0.2441
He    0.1071    0.5180    0.2599
He    0.3572    0.9919    0.2329
He    0.3568    0.5067    0.2735
He    0.3876    0.5195    0.2460
He    0.3877    0.9789    0.2608
He    0.7267    0.9901    0.3621
He    0.7668    0.5058    0.3624
He    0.7387    0.5181    0.3931
He    0.7545    0.9780    0.3930
He    0.9887    0.7681    0.1431
He    0.5045    0.7280    0.1431
He    0.9767    0.7401    0.1121
He    0.5168    0.7558    0.1125
He    0.7276    0.5068    0.1430
He    0.7682    0.9921    0.1429
He    0.7553    0.5196    0.1122
He    0.7405    0.9790    0.1125
He    0.5053    0.7696    0.3623
He    0.9905    0.7289    0.3625
He    0.9776    0.7568    0.3930
He    0.5182    0.7420    0.3929
He    0.8568    0.7279    0.4941
He    0.8571    0.7681    0.0099
He    0.8877    0.7558    0.4820
He    0.8878    0.7400    0.0221
He    0.7267    0.6390    0.0097
He    0.7668    0.6391    0.4941
He    0.7388    0.6081    0.4819
He    0.7545    0.6084    0.0221
He    0.6376    0.7696    0.4960
He    0.6377    0.7289    0.0108
He    0.6072    0.7418    0.4829
He    0.6068    0.7566    0.0235
He    0.7682    0.8581    0.0107
He    0.7276    0.8585    0.4959
He    0.7407    0.8889    0.0235
He    0.7555    0.8890    0.4830
He    0.9888    0.8581    0.2320
He    0.5045    0.8585    0.2721
He    0.9767    0.8890    0.2598
He    0.5168    0.8891    0.2440
He    0.9906    0.6389    0.2735
He    0.5055    0.6390    0.2330
He    0.5182    0.6081    0.2608
He    0.9776    0.6085    0.2460
He    0.6377    0.5058    0.2320
He    0.6378    0.9899    0.2721
He    0.6067    0.9779    0.2441
He    0.6071    0.5180    0.2599
He    0.8572    0.9919    0.2329
He    0.8568    0.5067    0.2735
He    0.8876    0.5195    0.2460
He    0.8877    0.9789    0.2608
He    0.2267    0.4901    0.8621
He    0.2668    0.0058    0.8624
He    0.2387    0.0181    0.8931
He    0.2545    0.4780    0.8930
He    0.4887    0.2681    0.6431
He    0.0045    0.2280    0.6431
He    0.4767    0.2401    0.6121
He    0.0168    0.2558    0.6125
He    0.2276    0.0068    0.6430
He    0.2682    0.4921    0.6429
He    0.2553    0.0196    0.6122
He    0.2405    0.4790    0.6125
He    0.0053    0.2696    0.8623
He    0.4905    0.2289    0.8625
He    0.4776    0.2568    0.8930
He    0.0182    0.2420    0.8929
He    0.3568    0.2279    0.9941
He    0.3571    0.2681    0.5099
He    0.3877    0.2558    0.9820
He    0.3878    0.2400    0.5221
He    0.2267    0.1390    0.5097
He    0.2668    0.1391    0.9941
He    0.2388    0.1081    0.9819
He    0.2545    0.1084    0.5221
He    0.1376    0.2696    0.9960
He    0.1377    0.2289    0.5108
He    0.1072    0.2418    0.9829
He    0.1068    0.2566    0.5235
He    0.2682    0.3581    0.5107
He    0.2276    0.3585    0.9959
He    0.2407    0.3889    0.5235
He    0.2555    0.3890    0.9830
He    0.4888    0.3581    0.7320
He    0.0045    0.3585    0.7721
He    0.4767    0.3890    0.7598
He    0.0168    0.3891    0.7440
He    0.4906    0.1389    0.7735
He    0.0055    0.1390    0.7330
He    0.0182    0.1081    0.7608
He    0.4776    0.1085    0.7460
He    0.1377    0.0058    0.7320
He    0.1378    0.4899    0.7721
He    0.1067    0.4779    0.7441
He    0.1071    0.0180    0.7599
He    0.3572    0.4919    0.7329
He    0.3568    0.0067    0.7735
He    0.3876    0.0195    0.7460
He    0.3877    0.4789    0.7608
He    0.7267    0.4901    0.8621
He    0.7668    0.0058    0.8624
He    0.7387    0.0181    0.8931
He    0.7545    0.4780    0.8930
He    0.9887    0.2681    0.6431
He    0.5045    0.2280    0.6431
He    0.9767    0.2401    0.6121
He    0.5168    0.2558    0.6125
He    0.7276    0.0068    0.6430
He    0.7682    0.4921    0.6429
He    0.7553    0.0196    0.6122
He    0.7405    0.4790    0.6125
He    0.5053    0.2696    0.8623
He    0.9905    0.2289    0.8625
He    0.9776    0.2568    0.8930
He    0.5182    0.2420    0.8929
He    0.8568    0.2279    0.9941
He    0.8571    0.2681    0.5099
He    0.8877    0.2558    0.9820
He    0.8878    0.2400    0.5221
He    0.7267    0.1390    0.5097
He    0.7668    0.1391    0.9941
He    0.7388    0.1081    0.9819
He    0.7545    0.1084    0.5221
He    0.6376    0.2696    0.9960
He    0.6377    0.2289    0.5108
He    0.6072    0.2418    0.9829
He    0.6068    0.2566    0.5235
He    0.7682    0.3581    0.5107
He    0.7276    0.3585    0.9959
He    0.7407    0.3889    0.5235
He    0.7555    0.3890    0.9830
He    0.9888    0.3581    0.7320
He    0.5045    0.3585    0.7721
He    0.9767    0.3890    0.7598
He    0.5168    0.3891    0.7440
He    0.9906    0.1389    0.7735
He    0.5055    0.1390    0.7330
He    0.5182    0.1081    0.7608
He    0.9776    0.1085    0.7460
He    0.6377    0.0058    0.7320
He    0.6378    0.4899    0.7721
He    0.6067    0.4779    0.7441
He    0.6071    0.0180    0.7599
He    0.8572    0.4919    0.7329
He    0.8568    0.0067    0.7735
He    0.8876    0.0195    0.7460
He    0.8877    0.4789    0.7608
He    0.2267    0.9901    0.8621
He    0.2668    0.5058    0.8624
He    0.2387    0.5181    0.8931
He    0.2545    0.9780    0.8930
He    0.4887    0.7681    0.6431
He    0.0045    0.7280    0.6431
He    0.4767    0.7401    0.6121
He    0.0168    0.7558    0.6125
He    0.2276    0.5068    0.6430
He    0.2682    0.9921    0.6429
He    0.2553    0.5196    0.6122
He    0.2405    0.9790    0.6125
He    0.0053    0.7696    0.8623
He    0.4905    0.7289    0.8625
He    0.4776    0.7568    0.8930
He    0.0182    0.7420    0.8929
He    0.3568    0.7279    0.9941
He    0.3571    0.7681    0.5099
He    0.3877    0.7558    0.9820
He    0.3878    0.7400    0.5221
He    0.2267    0.6390    0.5097
He    0.2668    0.6391    0.9941
He    0.2388    0.6081    0.9819
He    0.2545    0.6084    0.5221
He    0.1376    0.7696    0.9960
He    0.1377    0.7289    0.5108
He    0.1072    0.7418    0.9829
He    0.1068    0.7566    0.5235
He    0.2682    0.8581    0.5107
He    0.2276    0.8585    0.9959
He    0.2407    0.8889    0.5235
He    0.2555    0.8890    0.9830
He    0.4888    0.8581    0.7320
He    0.0045    0.8585    0.7721
He    0.4767    0.8890    0.7598
He    0.0168    0.8891    0.7440
He    0.4906    0.6389    0.7735
He    0.0055    0.6390    0.7330
He    0.0182    0.6081    0.7608
He    0.4776    0.6085    0.7460
He    0.1377    0.5058    0.7320
He    0.1378    0.9899    0.7721
He    0.1067    0.9779    0.7441
He    0.1071    0.5180    0.7599
He    0.3572    0.9919    0.7329
He    0.3568    0.5067    0.7735
He    0.3876    0.5195    0.7460
He    0.3877    0.9789    0.7608
 H    0.7613    0.9532    0.8051
 H    0.8093    0.9328    0.8103
 H    0.7957    0.9562    0.7656
 H    0.9558    0.7352    0.7086
 H    0.9319    0.6939    0.6875
 H    0.9494    0.6912    0.7368
 H    0.7585    0.5385    0.7091
 H    0.7999    0.5647    0.6911
 H    0.8010    0.5446    0.7395
 H    0.5433    0.7354    0.8065
 H    0.5634    0.6870    0.8052
 H    0.5371    0.7051    0.7639
 H    0.7341    0.7048    0.9613
 H    0.6928    0.6838    0.9372
 H    0.6902    0.7332    0.9550
 H    0.7601    0.7965    0.9604
 H    0.8046    0.8110    0.9371
 H    0.8003    0.7628    0.9569
 H    0.7645    0.6908    0.5507
 H    0.8142    0.6910    0.5673
 H    0.7941    0.7339    0.5454
 H    0.7341    0.8023    0.5486
 H    0.6857    0.8013    0.5687
 H    0.7037    0.7598    0.5426
 H    0.5401    0.7955    0.7380
 H    0.5620    0.8154    0.6949
 H    0.5453    0.7657    0.6949
 H    0.7033    0.9572    0.7393
 H    0.6823    0.9332    0.6979
 H    0.7316    0.9509    0.6954
 H    0.9516    0.8016    0.7667
 H    0.9316    0.8058    0.8149
 H    0.9551    0.7614    0.8005
 H    0.6896    0.5466    0.7697
 H    0.6896    0.5633    0.8196
 H    0.7326    0.5416    0.7996
 H    0.9826    0.7915    0.5496
 H    0.9395    0.8133    0.5695
 H    0.9396    0.7966    0.5198
 H    0.5112    0.7034    0.5549
 H    0.5590    0.6828    0.5607
 H    0.5460    0.7059    0.5157
 H    0.7058    0.9852    0.9587
 H    0.6819    0.9439    0.9376
 H    0.6995    0.9414    0.9869
 H    0.9817    0.7010    0.9455
 H    0.9324    0.6832    0.9479
 H    0.9532    0.7072    0.9893
 H    0.9840    0.9548    0.7113
 H    0.9428    0.9337    0.6872
 H    0.9401    0.9830    0.7050
 H    0.5101    0.5466    0.7104
 H    0.5545    0.5612    0.6870
 H    0.5504    0.5128    0.7069
 H    0.5144    0.9409    0.8007
 H    0.5642    0.9410    0.8174
 H    0.5441    0.9839    0.7955
 H    0.9841    0.5524    0.7985
 H    0.9357    0.5514    0.8187
 H    0.9537    0.5098    0.7925
 H    0.7901    0.5456    0.9881
 H    0.8121    0.5654    0.9450
 H    0.7953    0.5157    0.9449
 H    0.7872    0.9552    0.5138
 H    0.8133    0.9371    0.5552
 H    0.7932    0.9854    0.5565
 H    0.7016    0.5517    0.5168
 H    0.6816    0.5557    0.5650
 H    0.7051    0.5113    0.5504
 H    0.5509    0.7945    0.9896
 H    0.5499    0.8148    0.9411
 H    0.5085    0.7885    0.9592
 H    0.2613    0.4532    0.3051
 H    0.3093    0.4328    0.3103
 H    0.2957    0.4562    0.2656
 H    0.4558    0.2352    0.2086
 H    0.4319    0.1939    0.1875
 H    0.4494    0.1912    0.2368
 H    0.2585    0.0385    0.2091
 H    0.2999    0.0647    0.1911
 H    0.3010    0.0446    0.2395
 H    0.0433    0.2354    0.3065
 H    0.0634    0.1870    0.3052
 H    0.0371    0.2051    0.2639
 H    0.2341    0.2048    0.4613
 H    0.1928    0.1838    0.4372
 H    0.1902    0.2332    0.4550
 H    0.2601    0.2965    0.4604
 H    0.3046    0.3110    0.4371
 H    0.3003    0.2628    0.4569
 H    0.2645    0.1908    0.0507
 H    0.3142    0.1910    0.0673
 H    0.2941    0.2339    0.0454
 H    0.2341    0.3023    0.0486
 H    0.1857    0.3013    0.0687
 H    0.2037    0.2598    0.0426
 H    0.0401    0.2955    0.2380
 H    0.0620    0.3154    0.1949
 H    0.0453    0.2657    0.1949
 H    0.2033    0.4572    0.2393
 H    0.1823    0.4332    0.1979
 H    0.2316    0.4509    0.1954
 H    0.4516    0.3016    0.2667
 H    0.4316    0.3058    0.3149
 H    0.4551    0.2614    0.3005
 H    0.1896    0.0466    0.2697
 H    0.1896    0.0633    0.3196
 H    0.2326    0.0416    0.2996
 H    0.4826    0.2915    0.0496
 H    0.4395    0.3133    0.0695
 H    0.4396    0.2966    0.0198
 H    0.0112    0.2034    0.0549
 H    0.0590    0.1828    0.0607
 H    0.0460    0.2059    0.0157
 H    0.2058    0.4852    0.4587
 H    0.1819    0.4439    0.4376
 H    0.1995    0.4414    0.4869
 H    0.4817    0.2010    0.4455
 H    0.4324    0.1832    0.4479
 H    0.4532    0.2072    0.4893
 H    0.4840    0.4548    0.2113
 H    0.4428    0.4337    0.1872
 H    0.4401    0.4830    0.2050
 H    0.0101    0.0466    0.2104
 H    0.0545    0.0612    0.1870
 H    0.0504    0.0128    0.2069
 H    0.0144    0.4409    0.3007
 H    0.0642    0.4410    0.3174
 H    0.0441    0.4839    0.2955
 H    0.4841    0.0524    0.2985
 H    0.4357    0.0514    0.3187
 H    0.4537    0.0098    0.2925
 H    0.2901    0.0456    0.4881
 H    0.3121    0.0654    0.4450
 H    0.2953    0.0157    0.4449
 H    0.2872    0.4552    0.0138
 H    0.3133    0.4371    0.0552
 H    0.2932    0.4854    0.0565
 H    0.2016    0.0517    0.0168
 H    0.1816    0.0557    0.0650
 H    0.2051    0.0113    0.0504
 H    0.0509    0.2945    0.4896
 H    0.0499    0.3148    0.4411
 H    0.0085    0.2885    0.4592
 H    0.7613    0.4532    0.3051
 H    0.8093    0.4328    0.3103
 H    0.7957    0.4562    0.2656
 H    0.9558    0.2352    0.2086
 H    0.9319    0.1939    0.1875
 H    0.9494    0.1912    0.2368
 H    0.7585    0.0385    0.2091
 H    0.7999    0.0647    0.1911
 H    0.8010    0.0446    0.2395
 H    0.5433    0.2354    0.3065
 H    0.5634    0.1870    0.3052
 H    0.5371    0.2051    0.2639
 H    0.7341    0.2048    0.4613
 H    0.6928    0.1838    0.4372
 H    0.6902    0.2332    0.4550
 H    0.7601    0.2965    0.4604
 H    0.8046    0.3110    0.4371
 H    0.8003    0.2628    0.4569
 H    0.7645    0.1908    0.0507
 H    0.8142    0.1910    0.0673
 H    0.7941    0.2339    0.0454
 H    0.7341    0.3023    0.0486
 H    0.6857    0.3013    0.0687
 H    0.7037    0.2598    0.0426
 H    0.5401    0.2955    0.2380
 H    0.5620    0.3154    0.1949
 H    0.5453    0.2657    0.1949
 H    0.7033    0.4572    0.2393
 H    0.6823    0.4332    0.1979
 H    0.7316    0.4509    0.1954
 H    0.9516    0.3016    0.2667
 H    0.9316    0.3058    0.3149
 H    0.9551    0.2614    0.3005
 H    0.6896    0.0466    0.2697
 H    0.6896    0.0633    0.3196
 H    0.7326    0.0416    0.2996
 H    0.9826    0.2915    0.0496
 H    0.9395    0.3133    0.0695
 H    0.9396    0.2966    0.0198
 H    0.5112    0.2034    0.0549
 H    0.5590    0.1828    0.0607
 H    0.5460    0.2059    0.0157
 H    0.7058    0.4852    0.4587
 H    0.6819    0.4439    0.4376
 H    0.6995    0.4414    0.4869
 H    0.9817    0.2010    0.4455
 H    0.9324    0.1832    0.4479
 H    0.9532    0.2072    0.4893
 H    0.9840    0.4548    0.2113
 H    0.9428    0.4337    0.1872
 H    0.9401    0.4830    0.2050
 H    0.5101    0.0466    0.2104
 H    0.5545    0.0612    0.1870
 H    0.5504    0.0128    0.2069
 H    0.5144    0.4409    0.3007
 H    0.5642    0.4410    0.3174
 H    0.5441    0.4839    0.2955
 H    0.9841    0.0524    0.2985
 H    0.9357    0.0514    0.3187
 H    0.9537    0.0098    0.2925
 H    0.7901    0.0456    0.4881
 H    0.8121    0.0654    0.4450
 H    0.7953    0.0157    0.4449
 H    0.7872    0.4552    0.0138
 H    0.8133    0.4371    0.0552
 H    0.7932    0.4854    0.0565
 H    0.7016    0.0517    0.0168
 H    0.6816    0.0557    0.0650
 H    0.7051    0.0113    0.0504
 H    0.5509    0.2945    0.4896
 H    0.5499    0.3148    0.4411
 H    0.5085    0.2885    0.4592
 H    0.2613    0.9532    0.3051
 H    0.3093    0.9328    0.3103
 H    0.2957    0.9562    0.2656
 H    0.4558    0.7352    0.2086
 H    0.4319    0.6939    0.1875
 H    0.4494    0.6912    0.2368
 H    0.2585    0.5385    0.2091
 H    0.2999    0.5647    0.1911
 H    0.3010    0.5446    0.2395
 H    0.0433    0.7354    0.3065
 H    0.0634    0.6870    0.3052
 H    0.0371    0.7051    0.2639
 H    0.2341    0.7048    0.4613
 H    0.1928    0.6838    0.4372
 H    0.1902    0.7332    0.4550
 H    0.2601    0.7965    0.4604
 H    0.3046    0.8110    0.4371
 H    0.3003    0.7628    0.4569
 H    0.2645    0.6908    0.0507
 H    0.3142    0.6910    0.0673
 H    0.2941    0.7339    0.0454
 H    0.2341    0.8023    0.0486
 H    0.1857    0.8013    0.0687
 H    0.2037    0.7598    0.0426
 H    0.0401    0.7955    0.2380
 H    0.0620    0.8154    0.1949
 H    0.0453    0.7657    0.1949
 H    0.2033    0.9572    0.2393
 H    0.1823    0.9332    0.1979
 H    0.2316    0.9509    0.1954
 H    0.4516    0.8016    0.2667
 H    0.4316    0.8058    0.3149
 H    0.4551    0.7614    0.3005
 H    0.1896    0.5466    0.2697
 H    0.1896    0.5633    0.3196
 H    0.2326    0.5416    0.2996
 H    0.4826    0.7915    0.0496
 H    0.4395    0.8133    0.0695
 H    0.4396    0.7966    0.0198
 H    0.0112    0.7034    0.0549
 H    0.0590    0.6828    0.0607
 H    0.0460    0.7059    0.0157
 H    0.2058    0.9852    0.4587
 H    0.1819    0.9439    0.4376
 H    0.1995    0.9414    0.4869
 H    0.4817    0.7010    0.4455
 H    0.4324    0.6832    0.4479
 H    0.4532    0.7072    0.4893
 H    0.4840    0.9548    0.2113
 H    0.4428    0.9337    0.1872
 H    0.4401    0.9830    0.2050
 H    0.0101    0.5466    0.2104
 H    0.0545    0.5612    0.1870
 H    0.0504    0.5128    0.2069
 H    0.0144    0.9409    0.3007
 H    0.0642    0.9410    0.3174
 H    0.0441    0.9839    0.2955
 H    0.4841    0.5524    0.2985
 H    0.4357    0.5514    0.3187
 H    0.4537    0.5098    0.2925
 H    0.2901    0.5456    0.4881
 H    0.3121    0.5654    0.4450
 H    0.2953    0.5157    0.4449
 H    0.2872    0.9552    0.0138
 H    0.3133    0.9371    0.0552
 H    0.2932    0.9854    0.0565
 H    0.2016    0.5517    0.0168
 H    0.1816    0.5557    0.0650
 H    0.2051    0.5113    0.0504
 H    0.0509    0.7945    0.4896
 H    0.0499    0.8148    0.4411
 H    0.0085    0.7885    0.4592
 H    0.7613    0.9532    0.3051
 H    0.8093    0.9328    0.3103
 H    0.7957    0.9562    0.2656
 H    0.9558    0.7352    0.2086
 H    0.9319    0.6939    0.1875
 H    0.9494    0.6912    0.2368
 H    0.7585    0.5385    0.2091
 H    0.7999    0.5647    0.1911
 H    0.8010    0.5446    0.2395
 H    0.5433    0.7354    0.3065
 H    0.5634    0.6870    0.3052
 H    0.5371    0.7051    0.2639
 H    0.7341    0.7048    0.4613
 H    0.6928    0.6838    0.4372
 H    0.6902    0.7332    0.4550
 H    0.7601    0.7965    0.4604
 H    0.8046    0.8110    0.4371
 H    0.8003    0.7628    0.4569
 H    0.7645    0.6908    0.0507
 H    0.8142    0.6910    0.0673
 H    0.7941    0.7339    0.0454
 H    0.7341    0.8023    0.0486
 H    0.6857    0.8013    0.0687
 H    0.7037    0.7598    0.0426
 H    0.5401    0.7955    0.2380
 H    0.5620    0.8154    0.1949
 H    0.5453    0.7657    0.1949
 H    0.7033    0.9572    0.2393
 H    0.6823    0.9332    0.1979
 H    0.7316    0.9509    0.1954
 H    0.9516    0.8016    0.2667
 H    0.9316    0.8058    0.3149
 H    0.9551    0.7614    0.3005
 H    0.6896    0.5466    0.2697
 H    0.6896    0.5633    0.3196
 H    0.7326    0.5416    0.2996
 H    0.9826    0.7915    0.0496
 H    0.9395    0.8133    0.0695
 H    0.9396    0.7966    0.0198
 H    0.5112    0.7034    0.0549
 H    0.5590    0.6828    0.0607
 H    0.5460    0.7059    0.0157
 H    0.7058    0.9852    0.4587
 H    0.6819    0.9439    0.4376
 H    0.6995    0.9414    0.4869
 H    0.9817    0.7010    0.4455
 H    0.9324    0.6832    0.4479
 H    0.9532    0.7072    0.4893
 H    0.9840    0.9548    0.2113
 H    0.9428    0.9337    0.1872
 H    0.9401    0.9830    0.2050
 H    0.5101    0.5466    0.2104
 H    0.5545    0.5612    0.1870
 H    0.5504    0.5128    0.2069
 H    0.5144    0.9409    0.3007
 H    0.5642    0.9410    0.3174
 H    0.5441    0.9839    0.2955
 H    0.9841    0.5524    0.2985
 H    0.9357    0.5514    0.3187
 H    0.9537    0.5098    0.2925
 H    0.7901    0.5456    0.4881
 H    0.8121    0.5654    0.4450
 H    0.7953    0.5157    0.4449
 H    0.7872    0.9552    0.0138
 H    0.8133    0.9371    0.0552
 H    0.7932    0.9854    0.0565
 H    0.7016    0.5517    0.0168
 H    0.6816    0.5557    0.0650
 H    0.7051    0.5113    0.0504
 H    0.5509    0.7945    0.4896
 H    0.5499    0.8148    0.4411
 H    0.5085    0.7885    0.4592
 H    0.2613    0.4532    0.8051
 H    0.3093    0.4328    0.8103
 H    0.2957    0.4562    0.7656
 H    0.4558    0.2352    0.7086
 H    0.4319    0.1939    0.6875
 H    0.4494    0.1912    0.7368
 H    0.2585    0.0385    0.7091
 H    0.2999    0.0647    0.6911
 H    0.3010    0.0446    0.7395
 H    0.0433    0.2354    0.8065
 H    0.0634    0.1870    0.8052
 H    0.0371    0.2051    0.7639
 H    0.2341    0.2048    0.9613
 H    0.1928    0.1838    0.9372
 H    0.1902    0.2332    0.9550
 H    0.2601    0.2965    0.9604
 H    0.3046    0.3110    0.9371
 H    0.3003    0.2628    0.9569
 H    0.2645    0.1908    0.5507
 H    0.3142    0.1910    0.5673
 H    0.2941    0.2339    0.5454
 H    0.2341    0.3023    0.5486
 H    0.1857    0.3013    0.5687
 H    0.2037    0.2598    0.5426
 H    0.0401    0.2955    0.7380
 H    0.0620    0.3154    0.6949
 H    0.0453    0.2657    0.6949
 H    0.2033    0.4572    0.7393
 H    0.1823    0.4332    0.6979
 H    0.2316    0.4509    0.6954
 H    0.4516    0.3016    0.7667
 H    0.4316    0.3058    0.8149
 H    0.4551    0.2614    0.8005
 H    0.1896    0.0466    0.7697
 H    0.1896    0.0633    0.8196
 H    0.2326    0.0416    0.7996
 H    0.4826    0.2915    0.5496
 H    0.4395    0.3133    0.5695
 H    0.4396    0.2966    0.5198
 H    0.0112    0.2034    0.5549
 H    0.0590    0.1828    0.5607
 H    0.0460    0.2059    0.5157
 H    0.2058    0.4852    0.9587
 H    0.1819    0.4439    0.9376
 H    0.1995    0.4414    0.9869
 H    0.4817    0.2010    0.9455
 H    0.4324    0.1832    0.9479
 H    0.4532    0.2072    0.9893
 H    0.4840    0.4548    0.7113
 H    0.4428    0.4337    0.6872
 H    0.4401    0.4830    0.7050
 H    0.0101    0.0466    0.7104
 H    0.0545    0.0612    0.6870
 H    0.0504    0.0128    0.7069
 H    0.0144    0.4409    0.8007
 H    0.0642    0.4410    0.8174
 H    0.0441    0.4839    0.7955
 H    0.4841    0.0524    0.7985
 H    0.4357    0.0514    0.8187
 H    0.4537    0.0098    0.7925
 H    0.2901    0.0456    0.9881
 H    0.3121    0.0654    0.9450
 H    0.2953    0.0157    0.9449
 H    0.2872    0.4552    0.5138
 H    0.3133    0.4371    0.5552
 H    0.2932    0.4854    0.5565
 H    0.2016    0.0517    0.5168
 H    0.1816    0.0557    0.5650
 H    0.2051    0.0113    0.5504
 H    0.0509    0.2945    0.9896
 H    0.0499    0.3148    0.9411
 H    0.0085    0.2885    0.9592
 H    0.7613    0.4532    0.8051
 H    0.8093    0.4328    0.8103
 H    0.7957    0.4562    0.7656
 H    0.9558    0.2352    0.7086
 H    0.9319    0.1939    0.6875
 H    0.9494    0.1912    0.7368
 H    0.7585    0.0385    0.7091
 H    0.7999    0.0647    0.6911
 H    0.8010    0.0446    0.7395
 H    0.5433    0.2354    0.8065
 H    0.5634    0.1870    0.8052
 H    0.5371    0.2051    0.7639
 H    0.7341    0.2048    0.9613
 H    0.6928    0.1838    0.9372
 H    0.6902    0.2332    0.9550
 H    0.7601    0.2965    0.9604
 H    0.8046    0.3110    0.9371
 H    0.8003    0.2628    0.9569
 H    0.7645    0.1908    0.5507
 H    0.8142    0.1910    0.5673
 H    0.7941    0.2339    0.5454
 H    0.7341    0.3023    0.5486
 H    0.6857    0.3013    0.5687
 H    0.7037    0.2598    0.5426
 H    0.5401    0.2955    0.7380
 H    0.5620    0.3154    0.6949
 H    0.5453    0.2657    0.6949
 H    0.7033    0.4572    0.7393
 H    0.6823    0.4332    0.6979
 H    0.7316    0.4509    0.6954
 H    0.9516    0.3016    0.7667
 H    0.9316    0.3058    0.8149
 H    0.9551    0.2614    0.8005
 H    0.6896    0.0466    0.7697
 H    0.6896    0.0633    0.8196
 H    0.7326    0.0416    0.7996
 H    0.9826    0.2915    0.5496
 H    0.9395    0.3133    0.5695
 H    0.9396    0.2966    0.5198
 H    0.5112    0.2034    0.5549
 H    0.5590    0.1828    0.5607
 H    0.5460    0.2059    0.5157
 H    0.7058    0.4852    0.9587
 H    0.6819    0.4439    0.9376
 H    0.6995    0.4414    0.9869
 H    0.9817    0.2010    0.9455
 H    0.9324    0.1832    0.9479
 H    0.9532    0.2072    0.9893
 H    0.9840    0.4548    0.7113
 H    0.9428    0.4337    0.6872
 H    0.9401    0.4830    0.7050
 H    0.5101    0.0466    0.7104
 H    0.5545    0.0612    0.6870
 H    0.5504    0.0128    0.7069
 H    0.5144    0.4409    0.8007
 H    0.5642    0.4410    0.8174
 H    0.5441    0.4839    0.7955
 H    0.9841    0.0524    0.7985
 H    0.9357    0.0514    0.8187
 H    0.9537    0.0098    0.7925
 H    0.7901    0.0456    0.9881
 H    0.8121    0.0654    0.9450
 H    0.7953    0.0157    0.9449
 H    0.7872    0.4552    0.5138
 H    0.8133    0.4371    0.5552
 H    0.7932    0.4854    0.5565
 H    0.7016    0.0517    0.5168
 H    0.6816    0.0557    0.5650
 H    0.7051    0.0113    0.5504
 H    0.5509    0.2945    0.9896
 H    0.5499    0.3148    0.9411
 H    0.5085    0.2885    0.9592
 H    0.2613    0.9532    0.8051
 H    0.3093    0.9328    0.8103
 H    0.2957    0.9562    0.7656
 H    0.4558    0.7352    0.7086
 H    0.4319    0.6939    0.6875
 H    0.4494    0.6912    0.7368
 H    0.2585    0.5385    0.7091
 H    0.2999    0.5647    0.6911
 H    0.3010    0.5446    0.7395
 H    0.0433    0.7354    0.8065
 H    0.0634    0.6870    0.8052
 H    0.0371    0.7051    0.7639
 H    0.2341    0.7048    0.9613
 H    0.1928    0.6838    0.9372
 H    0.1902    0.7332    0.9550
 H    0.2601    0.7965    0.9604
 H    0.3046    0.8110    0.9371
 H    0.3003    0.7628    0.9569
 H    0.2645    0.6908    0.5507
 H    0.3142    0.6910    0.5673
 H    0.2941    0.7339    0.5454
 H    0.2341    0.8023    0.5486
 H    0.1857    0.8013    0.5687
 H    0.2037    0.7598    0.5426
 H    0.0401    0.7955    0.7380
 H    0.0620    0.8154    0.6949
 H    0.0453    0.7657    0.6949
 H    0.2033    0.9572    0.7393
 H    0.1823    0.9332    0.6979
 H    0.2316    0.9509    0.6954
 H    0.4516    0.8016    0.7667
 H    0.4316    0.8058    0.8149
 H    0.4551    0.7614    0.8005
 H    0.1896    0.5466    0.7697
 H    0.1896    0.5633    0.8196
 H    0.2326    0.5416    0.7996
 H    0.4826    0.7915    0.5496
 H    0.4395    0.8133    0.5695
 H    0.4396    0.7966    0.5198
 H    0.0112    0.7034    0.5549
 H    0.0590    0.6828    0.5607
 H    0.0460    0.7059    0.5157
 H    0.2058    0.9852    0.9587
 H    0.1819    0.9439    0.9376
 H    0.1995    0.9414    0.9869
 H    0.4817    0.7010    0.9455
 H    0.4324    0.6832    0.9479
 H    0.4532    0.7072    0.9893
 H    0.4840    0.9548    0.7113
 H    0.4428    0.9337    0.6872
 H    0.4401    0.9830    0.7050
 H    0.0101    0.5466    0.7104
 H    0.0545    0.5612    0.6870
 H    0.0504    0.5128    0.7069
 H    0.0144    0.9409    0.8007
 H    0.0642    0.9410    0.8174
 H    0.0441    0.9839    0.7955
 H    0.4841    0.5524    0.7985
 H    0.4357    0.5514    0.8187
 H    0.4537    0.5098    0.7925
 H    0.2901    0.5456    0.9881
 H    0.3121    0.5654    0.9450
 H    0.2953    0.5157    0.9449
 H    0.2872    0.9552    0.5138
 H    0.3133    0.9371    0.5552
 H    0.2932    0.9854    0.5565
 H    0.2016    0.5517    0.5168
 H    0.1816    0.5557    0.5650
 H    0.2051    0.5113    0.5504
 H    0.0509    0.7945    0.9896
 H    0.0499    0.8148    0.9411
 H    0.0085    0.7885    0.9592
 C    0.6821    0.9452    0.8457
 C    0.9439    0.8128    0.6591
 C    0.8130    0.5495    0.8485
 C    0.5487    0.6824    0.6579
 C    0.6813    0.5502    0.6579
 C    0.5485    0.8161    0.8472
 C    0.8159    0.9497    0.6562
 C    0.9484    0.6812    0.8497
 C    0.8404    0.6835    0.9494
 C    0.6809    0.6536    0.5539
 C    0.6509    0.8172    0.9537
 C    0.8147    0.8432    0.5539
 C    0.8431    0.8143    0.5536
 C    0.8115    0.6551    0.9492
 C    0.6524    0.6825    0.5540
 C    0.6798    0.8457    0.9537
 C    0.9439    0.8417    0.6875
 C    0.9484    0.6522    0.8212
 C    0.6524    0.5499    0.6863
 C    0.5482    0.8445    0.8183
 C    0.8443    0.9498    0.6851
 C    0.5489    0.6539    0.6867
 C    0.6537    0.9452    0.8168
 C    0.8418    0.5498    0.8201
 C    0.9321    0.6953    0.5957
 C    0.6939    0.5628    0.9090
 C    0.5630    0.7995    0.5986
 C    0.7986    0.9323    0.9080
 C    0.9313    0.8001    0.9080
 C    0.7985    0.5662    0.5972
 C    0.5659    0.6998    0.9062
 C    0.6984    0.9311    0.5996
 C    0.5904    0.9334    0.6993
 C    0.9309    0.9037    0.8038
 C    0.9010    0.5672    0.7038
 C    0.5647    0.5931    0.8040
 C    0.5931    0.5642    0.8036
 C    0.5615    0.9050    0.6993
 C    0.9025    0.9326    0.8041
 C    0.9298    0.5956    0.7038
 C    0.6939    0.5918    0.9374
 C    0.6984    0.9023    0.5712
 C    0.9024    0.8000    0.9363
 C    0.7982    0.5946    0.5683
 C    0.5944    0.6998    0.9351
 C    0.7989    0.9039    0.9367
 C    0.9037    0.6953    0.5668
 C    0.5918    0.8000    0.5700
 C    0.1821    0.4452    0.3457
 C    0.4439    0.3128    0.1591
 C    0.3130    0.0495    0.3485
 C    0.0487    0.1824    0.1579
 C    0.1813    0.0502    0.1579
 C    0.0485    0.3161    0.3472
 C    0.3159    0.4497    0.1562
 C    0.4484    0.1812    0.3497
 C    0.3404    0.1835    0.4494
 C    0.1809    0.1536    0.0539
 C    0.1509    0.3172    0.4537
 C    0.3147    0.3432    0.0539
 C    0.3431    0.3143    0.0536
 C    0.3115    0.1551    0.4492
 C    0.1524    0.1825    0.0540
 C    0.1798    0.3457    0.4537
 C    0.4439    0.3417    0.1875
 C    0.4484    0.1522    0.3212
 C    0.1524    0.0499    0.1863
 C    0.0482    0.3445    0.3183
 C    0.3443    0.4498    0.1851
 C    0.0489    0.1539    0.1867
 C    0.1537    0.4452    0.3168
 C    0.3418    0.0498    0.3201
 C    0.4321    0.1953    0.0957
 C    0.1939    0.0628    0.4090
 C    0.0630    0.2995    0.0986
 C    0.2986    0.4323    0.4080
 C    0.4313    0.3001    0.4080
 C    0.2985    0.0662    0.0972
 C    0.0659    0.1998    0.4062
 C    0.1984    0.4311    0.0996
 C    0.0904    0.4334    0.1993
 C    0.4309    0.4037    0.3038
 C    0.4010    0.0672    0.2038
 C    0.0647    0.0931    0.3040
 C    0.0931    0.0642    0.3036
 C    0.0615    0.4050    0.1993
 C    0.4025    0.4326    0.3041
 C    0.4298    0.0956    0.2038
 C    0.1939    0.0918    0.4374
 C    0.1984    0.4023    0.0712
 C    0.4024    0.3000    0.4363
 C    0.2982    0.0946    0.0683
 C    0.0944    0.1998    0.4351
 C    0.2989    0.4039    0.4367
 C    0.4037    0.1953    0.0668
 C    0.0918    0.3000    0.0700
 C    0.6821    0.4452    0.3457
 C    0.9439    0.3128    0.1591
 C    0.8130    0.0495    0.3485
 C    0.5487    0.1824    0.1579
 C    0.6813    0.0502    0.1579
 C    0.5485    0.3161    0.3472
 C    0.8159    0.4497    0.1562
 C    0.9484    0.1812    0.3497
 C    0.8404    0.1835    0.4494
 C    0.6809    0.1536    0.0539
 C    0.6509    0.3172    0.4537
 C    0.8147    0.3432    0.0539
 C    0.8431    0.3143    0.0536
 C    0.8115    0.1551    0.4492
 C    0.6524    0.1825    0.0540
 C    0.6798    0.3457    0.4537
 C    0.9439    0.3417    0.1875
 C    0.9484    0.1522    0.3212
 C    0.6524    0.0499    0.1863
 C    0.5482    0.3445    0.3183
 C    0.8443    0.4498    0.1851
 C    0.5489    0.1539    0.1867
 C    0.6537    0.4452    0.3168
 C    0.8418    0.0498    0.3201
 C    0.9321    0.1953    0.0957
 C    0.6939    0.0628    0.4090
 C    0.5630    0.2995    0.0986
 C    0.7986    0.4323    0.4080
 C    0.9313    0.3001    0.4080
 C    0.7985    0.0662    0.0972
 C    0.5659    0.1998    0.4062
 C    0.6984    0.4311    0.0996
 C    0.5904    0.4334    0.1993
 C    0.9309    0.4037    0.3038
 C    0.9010    0.0672    0.2038
 C    0.5647    0.0931    0.3040
 C    0.5931    0.0642    0.3036
 C    0.5615    0.4050    0.1993
 C    0.9025    0.4326    0.3041
 C    0.9298    0.0956    0.2038
 C    0.6939    0.0918    0.4374
 C    0.6984    0.4023    0.0712
 C    0.9024    0.3000    0.4363
 C    0.7982    0.0946    0.0683
 C    0.5944    0.1998    0.4351
 C    0.7989    0.4039    0.4367
 C    0.9037    0.1953    0.0668
 C    0.5918    0.3000    0.0700
 C    0.1821    0.9452    0.3457
 C    0.4439    0.8128    0.1591
 C    0.3130    0.5495    0.3485
 C    0.0487    0.6824    0.1579
 C    0.1813    0.5502    0.1579
 C    0.0485    0.8161    0.3472
 C    0.3159    0.9497    0.1562
 C    0.4484    0.6812    0.3497
 C    0.3404    0.6835    0.4494
 C    0.1809    0.6536    0.0539
 C    0.1509    0.8172    0.4537
 C    0.3147    0.8432    0.0539
 C    0.3431    0.8143    0.0536
 C    0.3115    0.6551    0.4492
 C    0.1524    0.6825    0.0540
 C    0.1798    0.8457    0.4537
 C    0.4439    0.8417    0.1875
 C    0.4484    0.6522    0.3212
 C    0.1524    0.5499    0.1863
 C    0.0482    0.8445    0.3183
 C    0.3443    0.9498    0.1851
 C    0.0489    0.6539    0.1867
 C    0.1537    0.9452    0.3168
 C    0.3418    0.5498    0.3201
 C    0.4321    0.6953    0.0957
 C    0.1939    0.5628    0.4090
 C    0.0630    0.7995    0.0986
 C    0.2986    0.9323    0.4080
 C    0.4313    0.8001    0.4080
 C    0.2985    0.5662    0.0972
 C    0.0659    0.6998    0.4062
 C    0.1984    0.9311    0.0996
 C    0.0904    0.9334    0.1993
 C    0.4309    0.9037    0.3038
 C    0.4010    0.5672    0.2038
 C    0.0647    0.5931    0.3040
 C    0.0931    0.5642    0.3036
 C    0.0615    0.9050    0.1993
 C    0.4025    0.9326    0.3041
 C    0.4298    0.5956    0.2038
 C    0.1939    0.5918    0.4374
 C    0.1984    0.9023    0.0712
 C    0.4024    0.8000    0.4363
 C    0.2982    0.5946    0.0683
 C    0.0944    0.6998    0.4351
 C    0.2989    0.9039    0.4367
 C    0.4037    0.6953    0.0668
 C    0.0918    0.8000    0.0700
 C    0.6821    0.9452    0.3457
 C    0.9439    0.8128    0.1591
 C    0.8130    0.5495    0.3485
 C    0.5487    0.6824    0.1579
 C    0.6813    0.5502    0.1579
 C    0.5485    0.8161    0.3472
 C    0.8159    0.9497    0.1562
 C    0.9484    0.6812    0.3497
 C    0.8404    0.6835    0.4494
 C    0.6809    0.6536    0.0539
 C    0.6509    0.8172    0.4537
 C    0.8147    0.8432    0.0539
 C    0.8431    0.8143    0.0536
 C    0.8115    0.6551    0.4492
 C    0.6524    0.6825    0.0540
 C    0.6798    0.8457    0.4537
 C    0.9439    0.8417    0.1875
 C    0.9484    0.6522    0.3212
 C    0.6524    0.5499    0.1863
 C    0.5482    0.8445    0.3183
 C    0.8443    0.9498    0.1851
 C    0.5489    0.6539    0.1867
 C    0.6537    0.9452    0.3168
 C    0.8418    0.5498    0.3201
 C    0.9321    0.6953    0.0957
 C    0.6939    0.5628    0.4090
 C    0.5630    0.7995    0.0986
 C    0.7986    0.9323    0.4080
 C    0.9313    0.8001    0.4080
 C    0.7985    0.5662    0.0972
 C    0.5659    0.6998    0.4062
 C    0.6984    0.9311    0.0996
 C    0.5904    0.9334    0.1993
 C    0.9309    0.9037    0.3038
 C    0.9010    0.5672    0.2038
 C    0.5647    0.5931    0.3040
 C    0.5931    0.5642    0.3036
 C    0.5615    0.9050    0.1993
 C    0.9025    0.9326    0.3041
 C    0.9298    0.5956    0.2038
 C    0.6939    0.5918    0.4374
 C    0.6984    0.9023    0.0712
 C    0.9024    0.8000    0.4363
 C    0.7982    0.5946    0.0683
 C    0.5944    0.6998    0.4351
 C    0.7989    0.9039    0.4367
 C    0.9037    0.6953    0.0668
 C    0.5918    0.8000    0.0700
 C    0.1821    0.4452    0.8457
 C    0.4439    0.3128    0.6591
 C    0.3130    0.0495    0.8485
 C    0.0487    0.1824    0.6579
 C    0.1813    0.0502    0.6579
 C    0.0485    0.3161    0.8472
 C    0.3159    0.4497    0.6562
 C    0.4484    0.1812    0.8497
 C    0.3404    0.1835    0.9494
 C    0.1809    0.1536    0.5539
 C    0.1509    0.3172    0.9537
 C    0.3147    0.3432    0.5539
 C    0.3431    0.3143    0.5536
 C    0.3115    0.1551    0.9492
 C    0.1524    0.1825    0.5540
 C    0.1798    0.3457    0.9537
 C    0.4439    0.3417    0.6875
 C    0.4484    0.1522    0.8212
 C    0.1524    0.0499    0.6863
 C    0.0482    0.3445    0.8183
 C    0.3443    0.4498    0.6851
 C    0.0489    0.1539    0.6867
 C    0.1537    0.4452    0.8168
 C    0.3418    0.0498    0.8201
 C    0.4321    0.1953    0.5957
 C    0.1939    0.0628    0.9090
 C    0.0630    0.2995    0.5986
 C    0.2986    0.4323    0.9080
 C    0.4313    0.3001    0.9080
 C    0.2985    0.0662    0.5972
 C    0.0659    0.1998    0.9062
 C    0.1984    0.4311    0.5996
 C    0.0904    0.4334    0.6993
 C    0.4309    0.4037    0.8038
 C    0.4010    0.0672    0.7038
 C    0.0647    0.0931    0.8040
 C    0.0931    0.0642    0.8036
 C    0.0615    0.4050    0.6993
 C    0.4025    0.4326    0.8041
 C    0.4298    0.0956    0.7038
 C    0.1939    0.0918    0.9374
 C    0.1984    0.4023    0.5712
 C    0.4024    0.3000    0.9363
 C    0.2982    0.0946    0.5683
 C    0.0944    0.1998    0.9351
 C    0.2989    0.4039    0.9367
 C    0.4037    0.1953    0.5668
 C    0.0918    0.3000    0.5700
 C    0.6821    0.4452    0.8457
 C    0.9439    0.3128    0.6591
 C    0.8130    0.0495    0.8485
 C    0.5487    0.1824    0.6579
 C    0.6813    0.0502    0.6579
 C    0.5485    0.3161    0.8472
 C    0.8159    0.4497    0.6562
 C    0.9484    0.1812    0.8497
 C    0.8404    0.1835    0.9494
 C    0.6809    0.1536    0.5539
 C    0.6509    0.3172    0.9537
 C    0.8147    0.3432    0.5539
 C    0.8431    0.3143    0.5536
 C    0.8115    0.1551    0.9492
 C    0.6524    0.1825    0.5540
 C    0.6798    0.3457    0.9537
 C    0.9439    0.3417    0.6875
 C    0.9484    0.1522    0.8212
 C    0.6524    0.0499    0.6863
 C    0.5482    0.3445    0.8183
 C    0.8443    0.4498    0.6851
 C    0.5489    0.1539    0.6867
 C    0.6537    0.4452    0.8168
 C    0.8418    0.0498    0.8201
 C    0.9321    0.1953    0.5957
 C    0.6939    0.0628    0.9090
 C    0.5630    0.2995    0.5986
 C    0.7986    0.4323    0.9080
 C    0.9313    0.3001    0.9080
 C    0.7985    0.0662    0.5972
 C    0.5659    0.1998    0.9062
 C    0.6984    0.4311    0.5996
 C    0.5904    0.4334    0.6993
 C    0.9309    0.4037    0.8038
 C    0.9010    0.0672    0.7038
 C    0.5647    0.0931    0.8040
 C    0.5931    0.0642    0.8036
 C    0.5615    0.4050    0.6993
 C    0.9025    0.4326    0.8041
 C    0.9298    0.0956    0.7038
 C    0.6939    0.0918    0.9374
 C    0.6984    0.4023    0.5712
 C    0.9024    0.3000    0.9363
 C    0.7982    0.0946    0.5683
 C    0.5944    0.1998    0.9351
 C    0.7989    0.4039    0.9367
 C    0.9037    0.1953    0.5668
 C    0.5918    0.3000    0.5700
 C    0.1821    0.9452    0.8457
 C    0.4439    0.8128    0.6591
 C    0.3130    0.5495    0.8485
 C    0.0487    0.6824    0.6579
 C    0.1813    0.5502    0.6579
 C    0.0485    0.8161    0.8472
 C    0.3159    0.9497    0.6562
 C    0.4484    0.6812    0.8497
 C    0.3404    0.6835    0.9494
 C    0.1809    0.6536    0.5539
 C    0.1509    0.8172    0.9537
 C    0.3147    0.8432    0.5539
 C    0.3431    0.8143    0.5536
 C    0.3115    0.6551    0.9492
 C    0.1524    0.6825    0.5540
 C    0.1798    0.8457    0.9537
 C    0.4439    0.8417    0.6875
 C    0.4484    0.6522    0.8212
 C    0.1524    0.5499    0.6863
 C    0.0482    0.8445    0.8183
 C    0.3443    0.9498    0.6851
 C    0.0489    0.6539    0.6867
 C    0.1537    0.9452    0.8168
 C    0.3418    0.5498    0.8201
 C    0.4321    0.6953    0.5957
 C    0.1939    0.5628    0.9090
 C    0.0630    0.7995    0.5986
 C    0.2986    0.9323    0.9080
 C    0.4313    0.8001    0.9080
 C    0.2985    0.5662    0.5972
 C    0.0659    0.6998    0.9062
 C    0.1984    0.9311    0.5996
 C    0.0904    0.9334    0.6993
 C    0.4309    0.9037    0.8038
 C    0.4010    0.5672    0.7038
 C    0.0647    0.5931    0.8040
 C    0.0931    0.5642    0.8036
 C    0.0615    0.9050    0.6993
 C    0.4025    0.9326    0.8041
 C    0.4298    0.5956    0.7038
 C    0.1939    0.5918    0.9374
 C    0.1984    0.9023    0.5712
 C    0.4024    0.8000    0.9363
 C    0.2982    0.5946    0.5683
 C    0.0944    0.6998    0.9351
 C    0.2989    0.9039    0.9367
 C    0.4037    0.6953    0.5668
 C    0.0918    0.8000    0.5700
 H    0.6895    0.9231    0.8678
 H    0.9218    0.8050    0.6371
 H    0.8061    0.5708    0.8714
 H    0.5701    0.6892    0.6351
 H    0.6881    0.5719    0.6355
 H    0.5701    0.8098    0.8700
 H    0.8102    0.9289    0.6325
 H    0.9276    0.6872    0.8732
 H    0.8624    0.6908    0.9273
 H    0.6876    0.6307    0.5751
 H    0.6273    0.8115    0.9329
 H    0.8083    0.8659    0.5755
 H    0.8661    0.8073    0.5750
 H    0.8038    0.6331    0.9271
 H    0.6298    0.6893    0.5757
 H    0.6859    0.8693    0.9329
 H    0.9218    0.8638    0.6948
 H    0.9276    0.6286    0.8155
 H    0.6296    0.5713    0.6931
 H    0.5695    0.8675    0.8114
 H    0.8680    0.9291    0.6911
 H    0.5707    0.6315    0.6937
 H    0.6318    0.9231    0.8090
 H    0.8646    0.5714    0.8138
 H    0.9395    0.6732    0.6177
 H    0.6718    0.5550    0.8871
 H    0.5561    0.8208    0.6214
 H    0.8200    0.9391    0.8850
 H    0.9381    0.8219    0.8854
 H    0.8201    0.5597    0.6200
 H    0.5602    0.6789    0.8826
 H    0.6776    0.9372    0.6232
 H    0.6124    0.9409    0.6772
 H    0.9377    0.8808    0.8252
 H    0.8773    0.5615    0.6829
 H    0.5584    0.6159    0.8256
 H    0.6161    0.5574    0.8249
 H    0.5538    0.8831    0.6772
 H    0.8799    0.9394    0.8258
 H    0.9359    0.6192    0.6829
 H    0.6719    0.6137    0.9447
 H    0.6775    0.8786    0.5655
 H    0.8796    0.8212    0.9431
 H    0.8194    0.6175    0.5614
 H    0.6180    0.6790    0.9411
 H    0.8206    0.8814    0.9436
 H    0.8819    0.6732    0.5590
 H    0.6146    0.8216    0.5637
 H    0.1895    0.4231    0.3678
 H    0.4218    0.3050    0.1371
 H    0.3061    0.0708    0.3714
 H    0.0701    0.1892    0.1351
 H    0.1881    0.0719    0.1355
 H    0.0701    0.3098    0.3700
 H    0.3102    0.4289    0.1325
 H    0.4276    0.1872    0.3732
 H    0.3624    0.1908    0.4273
 H    0.1876    0.1307    0.0751
 H    0.1273    0.3115    0.4329
 H    0.3083    0.3659    0.0755
 H    0.3661    0.3073    0.0750
 H    0.3038    0.1331    0.4271
 H    0.1298    0.1893    0.0757
 H    0.1859    0.3693    0.4329
 H    0.4218    0.3638    0.1948
 H    0.4276    0.1286    0.3155
 H    0.1296    0.0713    0.1931
 H    0.0695    0.3675    0.3114
 H    0.3680    0.4291    0.1911
 H    0.0707    0.1315    0.1937
 H    0.1318    0.4231    0.3090
 H    0.3646    0.0714    0.3138
 H    0.4395    0.1732    0.1177
 H    0.1718    0.0550    0.3871
 H    0.0561    0.3208    0.1214
 H    0.3200    0.4391    0.3850
 H    0.4381    0.3219    0.3854
 H    0.3201    0.0597    0.1200
 H    0.0602    0.1789    0.3826
 H    0.1776    0.4372    0.1232
 H    0.1124    0.4409    0.1772
 H    0.4377    0.3808    0.3252
 H    0.3773    0.0615    0.1829
 H    0.0584    0.1159    0.3256
 H    0.1161    0.0574    0.3249
 H    0.0538    0.3831    0.1772
 H    0.3799    0.4394    0.3258
 H    0.4359    0.1192    0.1829
 H    0.1719    0.1137    0.4447
 H    0.1775    0.3786    0.0655
 H    0.3796    0.3212    0.4431
 H    0.3194    0.1175    0.0614
 H    0.1180    0.1790    0.4411
 H    0.3206    0.3814    0.4436
 H    0.3819    0.1732    0.0590
 H    0.1146    0.3216    0.0637
 H    0.6895    0.4231    0.3678
 H    0.9218    0.3050    0.1371
 H    0.8061    0.0708    0.3714
 H    0.5701    0.1892    0.1351
 H    0.6881    0.0719    0.1355
 H    0.5701    0.3098    0.3700
 H    0.8102    0.4289    0.1325
 H    0.9276    0.1872    0.3732
 H    0.8624    0.1908    0.4273
 H    0.6876    0.1307    0.0751
 H    0.6273    0.3115    0.4329
 H    0.8083    0.3659    0.0755
 H    0.8661    0.3073    0.0750
 H    0.8038    0.1331    0.4271
 H    0.6298    0.1893    0.0757
 H    0.6859    0.3693    0.4329
 H    0.9218    0.3638    0.1948
 H    0.9276    0.1286    0.3155
 H    0.6296    0.0713    0.1931
 H    0.5695    0.3675    0.3114
 H    0.8680    0.4291    0.1911
 H    0.5707    0.1315    0.1937
 H    0.6318    0.4231    0.3090
 H    0.8646    0.0714    0.3138
 H    0.9395    0.1732    0.1177
 H    0.6718    0.0550    0.3871
 H    0.5561    0.3208    0.1214
 H    0.8200    0.4391    0.3850
 H    0.9381    0.3219    0.3854
 H    0.8201    0.0597    0.1200
 H    0.5602    0.1789    0.3826
 H    0.6776    0.4372    0.1232
 H    0.6124    0.4409    0.1772
 H    0.9377    0.3808    0.3252
 H    0.8773    0.0615    0.1829
 H    0.5584    0.1159    0.3256
 H    0.6161    0.0574    0.3249
 H    0.5538    0.3831    0.1772
 H    0.8799    0.4394    0.3258
 H    0.9359    0.1192    0.1829
 H    0.6719    0.1137    0.4447
 H    0.6775    0.3786    0.0655
 H    0.8796    0.3212    0.4431
 H    0.8194    0.1175    0.0614
 H    0.6180    0.1790    0.4411
 H    0.8206    0.3814    0.4436
 H    0.8819    0.1732    0.0590
 H    0.6146    0.3216    0.0637
 H    0.1895    0.9231    0.3678
 H    0.4218    0.8050    0.1371
 H    0.3061    0.5708    0.3714
 H    0.0701    0.6892    0.1351
 H    0.1881    0.5719    0.1355
 H    0.0701    0.8098    0.3700
 H    0.3102    0.9289    0.1325
 H    0.4276    0.6872    0.3732
 H    0.3624    0.6908    0.4273
 H    0.1876    0.6307    0.0751
 H    0.1273    0.8115    0.4329
 H    0.3083    0.8659    0.0755
 H    0.3661    0.8073    0.0750
 H    0.3038    0.6331    0.4271
 H    0.1298    0.6893    0.0757
 H    0.1859    0.8693    0.4329
 H    0.4218    0.8638    0.1948
 H    0.4276    0.6286    0.3155
 H    0.1296    0.5713    0.1931
 H    0.0695    0.8675    0.3114
 H    0.3680    0.9291    0.1911
 H    0.0707    0.6315    0.1937
 H    0.1318    0.9231    0.3090
 H    0.3646    0.5714    0.3138
 H    0.4395    0.6732    0.1177
 H    0.1718    0.5550    0.3871
 H    0.0561    0.8208    0.1214
 H    0.3200    0.9391    0.3850
 H    0.4381    0.8219    0.3854
 H    0.3201    0.5597    0.1200
 H    0.0602    0.6789    0.3826
 H    0.1776    0.9372    0.1232
 H    0.1124    0.9409    0.1772
 H    0.4377    0.8808    0.3252
 H    0.3773    0.5615    0.1829
 H    0.0584    0.6159    0.3256
 H    0.1161    0.5574    0.3249
 H    0.0538    0.8831    0.1772
 H    0.3799    0.9394    0.3258
 H    0.4359    0.6192    0.1829
 H    0.1719    0.6137    0.4447
 H    0.1775    0.8786    0.0655
 H    0.3796    0.8212    0.4431
 H    0.3194    0.6175    0.0614
 H    0.1180    0.6790    0.4411
 H    0.3206    0.8814    0.4436
 H    0.3819    0.6732    0.0590
 H    0.1146    0.8216    0.0637
 H    0.6895    0.9231    0.3678
 H    0.9218    0.8050    0.1371
 H    0.8061    0.5708    0.3714
 H    0.5701    0.6892    0.1351
 H    0.6881    0.5719    0.1355
 H    0.5701    0.8098    0.3700
 H    0.8102    0.9289    0.1325
 H    0.9276    0.6872    0.3732
 H    0.8624    0.6908    0.4273
 H    0.6876    0.6307    0.0751
 H    0.6273    0.8115    0.4329
 H    0.8083    0.8659    0.0755
 H    0.8661    0.8073    0.0750
 H    0.8038    0.6331    0.4271
 H    0.6298    0.6893    0.0757
 H    0.6859    0.8693    0.4329
 H    0.9218    0.8638    0.1948
 H    0.9276    0.6286    0.3155
 H    0.6296    0.5713    0.1931
 H    0.5695    0.8675    0.3114
 H    0.8680    0.9291    0.1911
 H    0.5707    0.6315    0.1937
 H    0.6318    0.9231    0.3090
 H    0.8646    0.5714    0.3138
 H    0.9395    0.6732    0.1177
 H    0.6718    0.5550    0.3871
 H    0.5561    0.8208    0.1214
 H    0.8200    0.9391    0.3850
 H    0.9381    0.8219    0.3854
 H    0.8201    0.5597    0.1200
 H    0.5602    0.6789    0.3826
 H    0.6776    0.9372    0.1232
 H    0.6124    0.9409    0.1772
 H    0.9377    0.8808    0.3252
 H    0.8773    0.5615    0.1829
 H    0.5584    0.6159    0.3256
 H    0.6161    0.5574    0.3249
 H    0.5538    0.8831    0.1772
 H    0.8799    0.9394    0.3258
 H    0.9359    0.6192    0.1829
 H    0.6719    0.6137    0.4447
 H    0.6775    0.8786    0.0655
 H    0.8796    0.8212    0.4431
 H    0.8194    0.6175    0.0614
 H    0.6180    0.6790    0.4411
 H    0.8206    0.8814    0.4436
 H    0.8819    0.6732    0.0590
 H    0.6146    0.8216    0.0637
 H    0.1895    0.4231    0.8678
 H    0.4218    0.3050    0.6371
 H    0.3061    0.0708    0.8714
 H    0.0701    0.1892    0.6351
 H    0.1881    0.0719    0.6355
 H    0.0701    0.3098    0.8700
 H    0.3102    0.4289    0.6325
 H    0.4276    0.1872    0.8732
 H    0.3624    0.1908    0.9273
 H    0.1876    0.1307    0.5751
 H    0.1273    0.3115    0.9329
 H    0.3083    0.3659    0.5755
 H    0.3661    0.3073    0.5750
 H    0.3038    0.1331    0.9271
 H    0.1298    0.1893    0.5757
 H    0.1859    0.3693    0.9329
 H    0.4218    0.3638    0.6948
 H    0.4276    0.1286    0.8155
 H    0.1296    0.0713    0.6931
 H    0.0695    0.3675    0.8114
 H    0.3680    0.4291    0.6911
 H    0.0707    0.1315    0.6937
 H    0.1318    0.4231    0.8090
 H    0.3646    0.0714    0.8138
 H    0.4395    0.1732    0.6177
 H    0.1718    0.0550    0.8871
 H    0.0561    0.3208    0.6214
 H    0.3200    0.4391    0.8850
 H    0.4381    0.3219    0.8854
 H    0.3201    0.0597    0.6200
 H    0.0602    0.1789    0.8826
 H    0.1776    0.4372    0.6232
 H    0.1124    0.4409    0.6772
 H    0.4377    0.3808    0.8252
 H    0.3773    0.0615    0.6829
 H    0.0584    0.1159    0.8256
 H    0.1161    0.0574    0.8249
 H    0.0538    0.3831    0.6772
 H    0.3799    0.4394    0.8258
 H    0.4359    0.1192    0.6829
 H    0.1719    0.1137    0.9447
 H    0.1775    0.3786    0.5655
 H    0.3796    0.3212    0.9431
 H    0.3194    0.1175    0.5614
 H    0.1180    0.1790    0.9411
 H    0.3206    0.3814    0.9436
 H    0.3819    0.1732    0.5590
 H    0.1146    0.3216    0.5637
 H    0.6895    0.4231    0.8678
 H    0.9218    0.3050    0.6371
 H    0.8061    0.0708    0.8714
 H    0.5701    0.1892    0.6351
 H    0.6881    0.0719    0.6355
 H    0.5701    0.3098    0.8700
 H    0.8102    0.4289    0.6325
 H    0.9276    0.1872    0.8732
 H    0.8624    0.1908    0.9273
 H    0.6876    0.1307    0.5751
 H    0.6273    0.3115    0.9329
 H    0.8083    0.3659    0.5755
 H    0.8661    0.3073    0.5750
 H    0.8038    0.1331    0.9271
 H    0.6298    0.1893    0.5757
 H    0.6859    0.3693    0.9329
 H    0.9218    0.3638    0.6948
 H    0.9276    0.1286    0.8155
 H    0.6296    0.0713    0.6931
 H    0.5695    0.3675    0.8114
 H    0.8680    0.4291    0.6911
 H    0.5707    0.1315    0.6937
 H    0.6318    0.4231    0.8090
 H    0.8646    0.0714    0.8138
 H    0.9395    0.1732    0.6177
 H    0.6718    0.0550    0.8871
 H    0.5561    0.3208    0.6214
 H    0.8200    0.4391    0.8850
 H    0.9381    0.3219    0.8854
 H    0.8201    0.0597    0.6200
 H    0.5602    0.1789    0.8826
 H    0.6776    0.4372    0.6232
 H    0.6124    0.4409    0.6772
 H    0.9377    0.3808    0.8252
 H    0.8773    0.0615    0.6829
 H    0.5584    0.1159    0.8256
 H    0.6161    0.0574    0.8249
 H    0.5538    0.3831    0.6772
 H    0.8799    0.4394    0.8258
 H    0.9359    0.1192    0.6829
 H    0.6719    0.1137    0.9447
 H    0.6775    0.3786    0.5655
 H    0.8796    0.3212    0.9431
 H    0.8194    0.1175    0.5614
 H    0.6180    0.1790    0.9411
 H    0.8206    0.3814    0.9436
 H    0.8819    0.1732    0.5590
 H    0.6146    0.3216    0.5637
 H    0.1895    0.9231    0.8678
 H    0.4218    0.8050    0.6371
 H    0.3061    0.5708    0.8714
 H    0.0701    0.6892    0.6351
 H    0.1881    0.5719    0.6355
 H    0.0701    0.8098    0.8700
 H    0.3102    0.9289    0.6325
 H    0.4276    0.6872    0.8732
 H    0.3624    0.6908    0.9273
 H    0.1876    0.6307    0.5751
 H    0.1273    0.8115    0.9329
 H    0.3083    0.8659    0.5755
 H    0.3661    0.8073    0.5750
 H    0.3038    0.6331    0.9271
 H    0.1298    0.6893    0.5757
 H    0.1859    0.8693    0.9329
 H    0.4218    0.8638    0.6948
 H    0.4276    0.6286    0.8155
 H    0.1296    0.5713    0.6931
 H    0.0695    0.8675    0.8114
 H    0.3680    0.9291    0.6911
 H    0.0707    0.6315    0.6937
 H    0.1318    0.9231    0.8090
 H    0.3646    0.5714    0.8138
 H    0.4395    0.6732    0.6177
 H    0.1718    0.5550    0.8871
 H    0.0561    0.8208    0.6214
 H    0.3200    0.9391    0.8850
 H    0.4381    0.8219    0.8854
 H    0.3201    0.5597    0.6200
 H    0.0602    0.6789    0.8826
 H    0.1776    0.9372    0.6232
 H    0.1124    0.9409    0.6772
 H    0.4377    0.8808    0.8252
 H    0.3773    0.5615    0.6829
 H    0.0584    0.6159    0.8256
 H    0.1161    0.5574    0.8249
 H    0.0538    0.8831    0.6772
 H    0.3799    0.9394    0.8258
 H    0.4359    0.6192    0.6829
 H    0.1719    0.6137    0.9447
 H    0.1775    0.8786    0.5655
 H    0.3796    0.8212    0.9431
 H    0.3194    0.6175    0.5614
 H    0.1180    0.6790    0.9411
 H    0.3206    0.8814    0.9436
 H    0.3819    0.6732    0.5590
 H    0.1146    0.8216    0.5637
 N    0.7025    0.9804    0.8432
 N    0.9791    0.7924    0.6619
 N    0.7913    0.5153    0.8440
 N    0.5141    0.7038    0.6617
 N    0.7030    0.5158    0.6617
 N    0.5144    0.7940    0.8434
 N    0.7928    0.9830    0.6614
 N    0.9816    0.7041    0.8442
 N    0.8379    0.7038    0.9846
 N    0.7024    0.6576    0.5193
 N    0.6561    0.7941    0.9871
 N    0.7927    0.8393    0.5198
 N    0.8387    0.7927    0.5193
 N    0.7911    0.6579    0.9844
 N    0.6563    0.7043    0.5198
 N    0.7028    0.8402    0.9871
 N    0.9791    0.8392    0.7078
 N    0.9816    0.6574    0.7981
 N    0.6564    0.5154    0.7077
 N    0.5140    0.8400    0.7966
 N    0.8389    0.9830    0.7081
 N    0.5146    0.6577    0.7084
 N    0.6566    0.9804    0.7965
 N    0.8380    0.5158    0.7980
 N    0.9525    0.7304    0.5933
 N    0.7291    0.5424    0.9120
 N    0.5413    0.7652    0.5940
 N    0.7641    0.9537    0.9117
 N    0.9530    0.7659    0.9117
 N    0.7644    0.5441    0.5934
 N    0.5428    0.7330    0.9115
 N    0.7317    0.9542    0.5943
 N    0.5878    0.9538    0.7344
 N    0.9524    0.9076    0.7693
 N    0.9061    0.5441    0.7369
 N    0.5427    0.5894    0.7698
 N    0.5886    0.5426    0.7693
 N    0.5411    0.9080    0.7344
 N    0.9063    0.9543    0.7698
 N    0.9528    0.5903    0.7370
 N    0.7291    0.5893    0.9578
 N    0.7316    0.9075    0.5481
 N    0.9063    0.7654    0.9577
 N    0.7639    0.5900    0.5466
 N    0.5888    0.7330    0.9582
 N    0.7646    0.9077    0.9584
 N    0.9066    0.7304    0.5464
 N    0.5880    0.7657    0.5481
 N    0.2025    0.4804    0.3432
 N    0.4791    0.2924    0.1619
 N    0.2913    0.0153    0.3440
 N    0.0141    0.2038    0.1617
 N    0.2030    0.0158    0.1617
 N    0.0144    0.2940    0.3434
 N    0.2928    0.4830    0.1614
 N    0.4816    0.2041    0.3442
 N    0.3379    0.2038    0.4846
 N    0.2024    0.1576    0.0193
 N    0.1561    0.2941    0.4871
 N    0.2927    0.3393    0.0198
 N    0.3387    0.2927    0.0193
 N    0.2911    0.1579    0.4844
 N    0.1563    0.2043    0.0198
 N    0.2028    0.3402    0.4871
 N    0.4791    0.3392    0.2078
 N    0.4816    0.1574    0.2981
 N    0.1564    0.0154    0.2077
 N    0.0140    0.3400    0.2966
 N    0.3389    0.4830    0.2081
 N    0.0146    0.1577    0.2084
 N    0.1566    0.4804    0.2965
 N    0.3380    0.0158    0.2980
 N    0.4525    0.2304    0.0933
 N    0.2291    0.0424    0.4120
 N    0.0413    0.2652    0.0940
 N    0.2641    0.4537    0.4117
 N    0.4530    0.2659    0.4117
 N    0.2644    0.0441    0.0934
 N    0.0428    0.2330    0.4115
 N    0.2317    0.4542    0.0943
 N    0.0878    0.4538    0.2344
 N    0.4524    0.4076    0.2693
 N    0.4061    0.0441    0.2369
 N    0.0427    0.0894    0.2698
 N    0.0886    0.0426    0.2693
 N    0.0411    0.4080    0.2344
 N    0.4063    0.4543    0.2698
 N    0.4528    0.0903    0.2370
 N    0.2291    0.0893    0.4578
 N    0.2316    0.4075    0.0481
 N    0.4063    0.2654    0.4577
 N    0.2639    0.0900    0.0466
 N    0.0888    0.2330    0.4582
 N    0.2646    0.4077    0.4584
 N    0.4066    0.2304    0.0464
 N    0.0880    0.2657    0.0481
 N    0.7025    0.4804    0.3432
 N    0.9791    0.2924    0.1619
 N    0.7913    0.0153    0.3440
 N    0.5141    0.2038    0.1617
 N    0.7030    0.0158    0.1617
 N    0.5144    0.2940    0.3434
 N    0.7928    0.4830    0.1614
 N    0.9816    0.2041    0.3442
 N    0.8379    0.2038    0.4846
 N    0.7024    0.1576    0.0193
 N    0.6561    0.2941    0.4871
 N    0.7927    0.3393    0.0198
 N    0.8387    0.2927    0.0193
 N    0.7911    0.1579    0.4844
 N    0.6563    0.2043    0.0198
 N    0.7028    0.3402    0.4871
 N    0.9791    0.3392    0.2078
 N    0.9816    0.1574    0.2981
 N    0.6564    0.0154    0.2077
 N    0.5140    0.3400    0.2966
 N    0.8389    0.4830    0.2081
 N    0.5146    0.1577    0.2084
 N    0.6566    0.4804    0.2965
 N    0.8380    0.0158    0.2980
 N    0.9525    0.2304    0.0933
 N    0.7291    0.0424    0.4120
 N    0.5413    0.2652    0.0940
 N    0.7641    0.4537    0.4117
 N    0.9530    0.2659    0.4117
 N    0.7644    0.0441    0.0934
 N    0.5428    0.2330    0.4115
 N    0.7317    0.4542    0.0943
 N    0.5878    0.4538    0.2344
 N    0.9524    0.4076    0.2693
 N    0.9061    0.0441    0.2369
 N    0.5427    0.0894    0.2698
 N    0.5886    0.0426    0.2693
 N    0.5411    0.4080    0.2344
 N    0.9063    0.4543    0.2698
 N    0.9528    0.0903    0.2370
 N    0.7291    0.0893    0.4578
 N    0.7316    0.4075    0.0481
 N    0.9063    0.2654    0.4577
 N    0.7639    0.0900    0.0466
 N    0.5888    0.2330    0.4582
 N    0.7646    0.4077    0.4584
 N    0.9066    0.2304    0.0464
 N    0.5880    0.2657    0.0481
 N    0.2025    0.9804    0.3432
 N    0.4791    0.7924    0.1619
 N    0.2913    0.5153    0.3440
 N    0.0141    0.7038    0.1617
 N    0.2030    0.5158    0.1617
 N    0.0144    0.7940    0.3434
 N    0.2928    0.9830    0.1614
 N    0.4816    0.7041    0.3442
 N    0.3379    0.7038    0.4846
 N    0.2024    0.6576    0.0193
 N    0.1561    0.7941    0.4871
 N    0.2927    0.8393    0.0198
 N    0.3387    0.7927    0.0193
 N    0.2911    0.6579    0.4844
 N    0.1563    0.7043    0.0198
 N    0.2028    0.8402    0.4871
 N    0.4791    0.8392    0.2078
 N    0.4816    0.6574    0.2981
 N    0.1564    0.5154    0.2077
 N    0.0140    0.8400    0.2966
 N    0.3389    0.9830    0.2081
 N    0.0146    0.6577    0.2084
 N    0.1566    0.9804    0.2965
 N    0.3380    0.5158    0.2980
 N    0.4525    0.7304    0.0933
 N    0.2291    0.5424    0.4120
 N    0.0413    0.7652    0.0940
 N    0.2641    0.9537    0.4117
 N    0.4530    0.7659    0.4117
 N    0.2644    0.5441    0.0934
 N    0.0428    0.7330    0.4115
 N    0.2317    0.9542    0.0943
 N    0.0878    0.9538    0.2344
 N    0.4524    0.9076    0.2693
 N    0.4061    0.5441    0.2369
 N    0.0427    0.5894    0.2698
 N    0.0886    0.5426    0.2693
 N    0.0411    0.9080    0.2344
 N    0.4063    0.9543    0.2698
 N    0.4528    0.5903    0.2370
 N    0.2291    0.5893    0.4578
 N    0.2316    0.9075    0.0481
 N    0.4063    0.7654    0.4577
 N    0.2639    0.5900    0.0466
 N    0.0888    0.7330    0.4582
 N    0.2646    0.9077    0.4584
 N    0.4066    0.7304    0.0464
 N    0.0880    0.7657    0.0481
 N    0.7025    0.9804    0.3432
 N    0.9791    0.7924    0.1619
 N    0.7913    0.5153    0.3440
 N    0.5141    0.7038    0.1617
 N    0.7030    0.5158    0.1617
 N    0.5144    0.7940    0.3434
 N    0.7928    0.9830    0.1614
 N    0.9816    0.7041    0.3442
 N    0.8379    0.7038    0.4846
 N    0.7024    0.6576    0.0193
 N    0.6561    0.7941    0.4871
 N    0.7927    0.8393    0.0198
 N    0.8387    0.7927    0.0193
 N    0.7911    0.6579    0.4844
 N    0.6563    0.7043    0.0198
 N    0.7028    0.8402    0.4871
 N    0.9791    0.8392    0.2078
 N    0.9816    0.6574    0.2981
 N    0.6564    0.5154    0.2077
 N    0.5140    0.8400    0.2966
 N    0.8389    0.9830    0.2081
 N    0.5146    0.6577    0.2084
 N    0.6566    0.9804    0.2965
 N    0.8380    0.5158    0.2980
 N    0.9525    0.7304    0.0933
 N    0.7291    0.5424    0.4120
 N    0.5413    0.7652    0.0940
 N    0.7641    0.9537    0.4117
 N    0.9530    0.7659    0.4117
 N    0.7644    0.5441    0.0934
 N    0.5428    0.7330    0.4115
 N    0.7317    0.9542    0.0943
 N    0.5878    0.9538    0.2344
 N    0.9524    0.9076    0.2693
 N    0.9061    0.5441    0.2369
 N    0.5427    0.5894    0.2698
 N    0.5886    0.5426    0.2693
 N    0.5411    0.9080    0.2344
 N    0.9063    0.9543    0.2698
 N    0.9528    0.5903    0.2370
 N    0.7291    0.5893    0.4578
 N    0.7316    0.9075    0.0481
 N    0.9063    0.7654    0.4577
 N    0.7639    0.5900    0.0466
 N    0.5888    0.7330    0.4582
 N    0.7646    0.9077    0.4584
 N    0.9066    0.7304    0.0464
 N    0.5880    0.7657    0.0481
 N    0.2025    0.4804    0.8432
 N    0.4791    0.2924    0.6619
 N    0.2913    0.0153    0.8440
 N    0.0141    0.2038    0.6617
 N    0.2030    0.0158    0.6617
 N    0.0144    0.2940    0.8434
 N    0.2928    0.4830    0.6614
 N    0.4816    0.2041    0.8442
 N    0.3379    0.2038    0.9846
 N    0.2024    0.1576    0.5193
 N    0.1561    0.2941    0.9871
 N    0.2927    0.3393    0.5198
 N    0.3387    0.2927    0.5193
 N    0.2911    0.1579    0.9844
 N    0.1563    0.2043    0.5198
 N    0.2028    0.3402    0.9871
 N    0.4791    0.3392    0.7078
 N    0.4816    0.1574    0.7981
 N    0.1564    0.0154    0.7077
 N    0.0140    0.3400    0.7966
 N    0.3389    0.4830    0.7081
 N    0.0146    0.1577    0.7084
 N    0.1566    0.4804    0.7965
 N    0.3380    0.0158    0.7980
 N    0.4525    0.2304    0.5933
 N    0.2291    0.0424    0.9120
 N    0.0413    0.2652    0.5940
 N    0.2641    0.4537    0.9117
 N    0.4530    0.2659    0.9117
 N    0.2644    0.0441    0.5934
 N    0.0428    0.2330    0.9115
 N    0.2317    0.4542    0.5943
 N    0.0878    0.4538    0.7344
 N    0.4524    0.4076    0.7693
 N    0.4061    0.0441    0.7369
 N    0.0427    0.0894    0.7698
 N    0.0886    0.0426    0.7693
 N    0.0411    0.4080    0.7344
 N    0.4063    0.4543    0.7698
 N    0.4528    0.0903    0.7370
 N    0.2291    0.0893    0.9578
 N    0.2316    0.4075    0.5481
 N    0.4063    0.2654    0.9577
 N    0.2639    0.0900    0.5466
 N    0.0888    0.2330    0.9582
 N    0.2646    0.4077    0.9584
 N    0.4066    0.2304    0.5464
 N    0.0880    0.2657    0.5481
 N    0.7025    0.4804    0.8432
 N    0.9791    0.2924    0.6619
 N    0.7913    0.0153    0.8440
 N    0.5141    0.2038    0.6617
 N    0.7030    0.0158    0.6617
 N    0.5144    0.2940    0.8434
 N    0.7928    0.4830    0.6614
 N    0.9816    0.2041    0.8442
 N    0.8379    0.2038    0.9846
 N    0.7024    0.1576    0.5193
 N    0.6561    0.2941    0.9871
 N    0.7927    0.3393    0.5198
 N    0.8387    0.2927    0.5193
 N    0.7911    0.1579    0.9844
 N    0.6563    0.2043    0.5198
 N    0.7028    0.3402    0.9871
 N    0.9791    0.3392    0.7078
 N    0.9816    0.1574    0.7981
 N    0.6564    0.0154    0.7077
 N    0.5140    0.3400    0.7966
 N    0.8389    0.4830    0.7081
 N    0.5146    0.1577    0.7084
 N    0.6566    0.4804    0.7965
 N    0.8380    0.0158    0.7980
 N    0.9525    0.2304    0.5933
 N    0.7291    0.0424    0.9120
 N    0.5413    0.2652    0.5940
 N    0.7641    0.4537    0.9117
 N    0.9530    0.2659    0.9117
 N    0.7644    0.0441    0.5934
 N    0.5428    0.2330    0.9115
 N    0.7317    0.4542    0.5943
 N    0.5878    0.4538    0.7344
 N    0.9524    0.4076    0.7693
 N    0.9061    0.0441    0.7369
 N    0.5427    0.0894    0.7698
 N    0.5886    0.0426    0.7693
 N    0.5411    0.4080    0.7344
 N    0.9063    0.4543    0.7698
 N    0.9528    0.0903    0.7370
 N    0.7291    0.0893    0.9578
 N    0.7316    0.4075    0.5481
 N    0.9063    0.2654    0.9577
 N    0.7639    0.0900    0.5466
 N    0.5888    0.2330    0.9582
 N    0.7646    0.4077    0.9584
 N    0.9066    0.2304    0.5464
 N    0.5880    0.2657    0.5481
 N    0.2025    0.9804    0.8432
 N    0.4791    0.7924    0.6619
 N    0.2913    0.5153    0.8440
 N    0.0141    0.7038    0.6617
 N    0.2030    0.5158    0.6617
 N    0.0144    0.7940    0.8434
 N    0.2928    0.9830    0.6614
 N    0.4816    0.7041    0.8442
 N    0.3379    0.7038    0.9846
 N    0.2024    0.6576    0.5193
 N    0.1561    0.7941    0.9871
 N    0.2927    0.8393    0.5198
 N    0.3387    0.7927    0.5193
 N    0.2911    0.6579    0.9844
 N    0.1563    0.7043    0.5198
 N    0.2028    0.8402    0.9871
 N    0.4791    0.8392    0.7078
 N    0.4816    0.6574    0.7981
 N    0.1564    0.5154    0.7077
 N    0.0140    0.8400    0.7966
 N    0.3389    0.9830    0.7081
 N    0.0146    0.6577    0.7084
 N    0.1566    0.9804    0.7965
 N    0.3380    0.5158    0.7980
 N    0.4525    0.7304    0.5933
 N    0.2291    0.5424    0.9120
 N    0.0413    0.7652    0.5940
 N    0.2641    0.9537    0.9117
 N    0.4530    0.7659    0.9117
 N    0.2644    0.5441    0.5934
 N    0.0428    0.7330    0.9115
 N    0.2317    0.9542    0.5943
 N    0.0878    0.9538    0.7344
 N    0.4524    0.9076    0.7693
 N    0.4061    0.5441    0.7369
 N    0.0427    0.5894    0.7698
 N    0.0886    0.5426    0.7693
 N    0.0411    0.9080    0.7344
 N    0.4063    0.9543    0.7698
 N    0.4528    0.5903    0.7370
 N    0.2291    0.5893    0.9578
 N    0.2316    0.9075    0.5481
 N    0.4063    0.7654    0.9577
 N    0.2639    0.5900    0.5466
 N    0.0888    0.7330    0.9582
 N    0.2646    0.9077    0.9584
 N    0.4066    0.7304    0.5464
 N    0.0880    0.7657    0.5481
 C    0.6864    0.5007    0.8130
 C    0.4994    0.8090    0.6918
 C    0.8072    0.9959    0.8133
 C    0.9945    0.6881    0.6925
 C    0.6872    0.9959    0.6921
 C    0.9945    0.8093    0.8125
 C    0.8075    0.5021    0.6930
 C    0.5008    0.6890    0.8128
 C    0.8077    0.6877    0.5047
 C    0.6868    0.6885    0.9999
 C    0.6876    0.8088    0.5062
 C    0.8079    0.8085    0.9999
 C    0.9364    0.7508    0.5632
 C    0.7494    0.5590    0.9419
 C    0.5572    0.7458    0.5632
 C    0.7445    0.9381    0.9425
 C    0.9372    0.7458    0.9421
 C    0.7445    0.5592    0.5625
 C    0.5574    0.7521    0.9430
 C    0.7508    0.9390    0.5628
 C    0.5577    0.9378    0.7548
 C    0.9368    0.9385    0.7498
 C    0.9377    0.5589    0.7563
 C    0.5579    0.5586    0.7498
 C    0.1864    0.0007    0.3130
 C    0.9994    0.3090    0.1918
 C    0.3072    0.4959    0.3133
 C    0.4945    0.1881    0.1925
 C    0.1872    0.4959    0.1921
 C    0.4945    0.3093    0.3125
 C    0.3075    0.0021    0.1930
 C    0.0008    0.1890    0.3128
 C    0.3077    0.1877    0.0047
 C    0.1868    0.1885    0.4999
 C    0.1876    0.3088    0.0062
 C    0.3079    0.3085    0.4999
 C    0.4364    0.2508    0.0632
 C    0.2494    0.0590    0.4419
 C    0.0572    0.2458    0.0632
 C    0.2445    0.4381    0.4425
 C    0.4372    0.2458    0.4421
 C    0.2445    0.0592    0.0625
 C    0.0574    0.2521    0.4430
 C    0.2508    0.4390    0.0628
 C    0.0577    0.4378    0.2548
 C    0.4368    0.4385    0.2498
 C    0.4377    0.0589    0.2563
 C    0.0579    0.0586    0.2498
 C    0.6864    0.0007    0.3130
 C    0.4994    0.3090    0.1918
 C    0.8072    0.4959    0.3133
 C    0.9945    0.1881    0.1925
 C    0.6872    0.4959    0.1921
 C    0.9945    0.3093    0.3125
 C    0.8075    0.0021    0.1930
 C    0.5008    0.1890    0.3128
 C    0.8077    0.1877    0.0047
 C    0.6868    0.1885    0.4999
 C    0.6876    0.3088    0.0062
 C    0.8079    0.3085    0.4999
 C    0.9364    0.2508    0.0632
 C    0.7494    0.0590    0.4419
 C    0.5572    0.2458    0.0632
 C    0.7445    0.4381    0.4425
 C    0.9372    0.2458    0.4421
 C    0.7445    0.0592    0.0625
 C    0.5574    0.2521    0.4430
 C    0.7508    0.4390    0.0628
 C    0.5577    0.4378    0.2548
 C    0.9368    0.4385    0.2498
 C    0.9377    0.0589    0.2563
 C    0.5579    0.0586    0.2498
 C    0.1864    0.5007    0.3130
 C    0.9994    0.8090    0.1918
 C    0.3072    0.9959    0.3133
 C    0.4945    0.6881    0.1925
 C    0.1872    0.9959    0.1921
 C    0.4945    0.8093    0.3125
 C    0.3075    0.5021    0.1930
 C    0.0008    0.6890    0.3128
 C    0.3077    0.6877    0.0047
 C    0.1868    0.6885    0.4999
 C    0.1876    0.8088    0.0062
 C    0.3079    0.8085    0.4999
 C    0.4364    0.7508    0.0632
 C    0.2494    0.5590    0.4419
 C    0.0572    0.7458    0.0632
 C    0.2445    0.9381    0.4425
 C    0.4372    0.7458    0.4421
 C    0.2445    0.5592    0.0625
 C    0.0574    0.7521    0.4430
 C    0.2508    0.9390    0.0628
 C    0.0577    0.9378    0.2548
 C    0.4368    0.9385    0.2498
 C    0.4377    0.5589    0.2563
 C    0.0579    0.5586    0.2498
 C    0.6864    0.5007    0.3130
 C    0.4994    0.8090    0.1918
 C    0.8072    0.9959    0.3133
 C    0.9945    0.6881    0.1925
 C    0.6872    0.9959    0.1921
 C    0.9945    0.8093    0.3125
 C    0.8075    0.5021    0.1930
 C    0.5008    0.6890    0.3128
 C    0.8077    0.6877    0.0047
 C    0.6868    0.6885    0.4999
 C    0.6876    0.8088    0.0062
 C    0.8079    0.8085    0.4999
 C    0.9364    0.7508    0.0632
 C    0.7494    0.5590    0.4419
 C    0.5572    0.7458    0.0632
 C    0.7445    0.9381    0.4425
 C    0.9372    0.7458    0.4421
 C    0.7445    0.5592    0.0625
 C    0.5574    0.7521    0.4430
 C    0.7508    0.9390    0.0628
 C    0.5577    0.9378    0.2548
 C    0.9368    0.9385    0.2498
 C    0.9377    0.5589    0.2563
 C    0.5579    0.5586    0.2498
 C    0.1864    0.0007    0.8130
 C    0.9994    0.3090    0.6918
 C    0.3072    0.4959    0.8133
 C    0.4945    0.1881    0.6925
 C    0.1872    0.4959    0.6921
 C    0.4945    0.3093    0.8125
 C    0.3075    0.0021    0.6930
 C    0.0008    0.1890    0.8128
 C    0.3077    0.1877    0.5047
 C    0.1868    0.1885    0.9999
 C    0.1876    0.3088    0.5062
 C    0.3079    0.3085    0.9999
 C    0.4364    0.2508    0.5632
 C    0.2494    0.0590    0.9419
 C    0.0572    0.2458    0.5632
 C    0.2445    0.4381    0.9425
 C    0.4372    0.2458    0.9421
 C    0.2445    0.0592    0.5625
 C    0.0574    0.2521    0.9430
 C    0.2508    0.4390    0.5628
 C    0.0577    0.4378    0.7548
 C    0.4368    0.4385    0.7498
 C    0.4377    0.0589    0.7563
 C    0.0579    0.0586    0.7498
 C    0.6864    0.0007    0.8130
 C    0.4994    0.3090    0.6918
 C    0.8072    0.4959    0.8133
 C    0.9945    0.1881    0.6925
 C    0.6872    0.4959    0.6921
 C    0.9945    0.3093    0.8125
 C    0.8075    0.0021    0.6930
 C    0.5008    0.1890    0.8128
 C    0.8077    0.1877    0.5047
 C    0.6868    0.1885    0.9999
 C    0.6876    0.3088    0.5062
 C    0.8079    0.3085    0.9999
 C    0.9364    0.2508    0.5632
 C    0.7494    0.0590    0.9419
 C    0.5572    0.2458    0.5632
 C    0.7445    0.4381    0.9425
 C    0.9372    0.2458    0.9421
 C    0.7445    0.0592    0.5625
 C    0.5574    0.2521    0.9430
 C    0.7508    0.4390    0.5628
 C    0.5577    0.4378    0.7548
 C    0.9368    0.4385    0.7498
 C    0.9377    0.0589    0.7563
 C    0.5579    0.0586    0.7498
 C    0.1864    0.5007    0.8130
 C    0.9994    0.8090    0.6918
 C    0.3072    0.9959    0.8133
 C    0.4945    0.6881    0.6925
 C    0.1872    0.9959    0.6921
 C    0.4945    0.8093    0.8125
 C    0.3075    0.5021    0.6930
 C    0.0008    0.6890    0.8128
 C    0.3077    0.6877    0.5047
 C    0.1868    0.6885    0.9999
 C    0.1876    0.8088    0.5062
 C    0.3079    0.8085    0.9999
 C    0.4364    0.7508    0.5632
 C    0.2494    0.5590    0.9419
 C    0.0572    0.7458    0.5632
 C    0.2445    0.9381    0.9425
 C    0.4372    0.7458    0.9421
 C    0.2445    0.5592    0.5625
 C    0.0574    0.7521    0.9430
 C    0.2508    0.9390    0.5628
 C    0.0577    0.9378    0.7548
 C    0.4368    0.9385    0.7498
 C    0.4377    0.5589    0.7563
 C    0.0579    0.5586    0.7498
 C    0.7002    0.5401    0.7996
 C    0.5387    0.7956    0.7056
 C    0.7925    0.9577    0.7977
 C    0.9559    0.7028    0.7072
 C    0.7020    0.9573    0.7069
 C    0.9563    0.7937    0.7978
 C    0.7909    0.5393    0.7091
 C    0.5380    0.7051    0.7963
 C    0.7943    0.7015    0.5441
 C    0.7017    0.7034    0.9615
 C    0.7038    0.7922    0.5434
 C    0.7924    0.7938    0.9616
 C    0.9502    0.7902    0.5497
 C    0.7887    0.5456    0.9557
 C    0.5425    0.7076    0.5477
 C    0.7060    0.9528    0.9573
 C    0.9520    0.7073    0.9569
 C    0.7063    0.5437    0.5478
 C    0.5409    0.7893    0.9592
 C    0.7880    0.9552    0.5463
 C    0.5443    0.9515    0.7942
 C    0.9516    0.9534    0.7114
 C    0.9537    0.5422    0.7933
 C    0.5424    0.5439    0.7116
 C    0.2002    0.0401    0.2996
 C    0.0387    0.2956    0.2056
 C    0.2925    0.4577    0.2977
 C    0.4559    0.2028    0.2072
 C    0.2020    0.4573    0.2069
 C    0.4563    0.2937    0.2978
 C    0.2909    0.0393    0.2091
 C    0.0380    0.2051    0.2963
 C    0.2943    0.2015    0.0441
 C    0.2017    0.2034    0.4615
 C    0.2038    0.2922    0.0434
 C    0.2924    0.2938    0.4616
 C    0.4502    0.2902    0.0497
 C    0.2887    0.0456    0.4557
 C    0.0425    0.2076    0.0477
 C    0.2060    0.4528    0.4573
 C    0.4520    0.2073    0.4569
 C    0.2063    0.0437    0.0478
 C    0.0409    0.2893    0.4592
 C    0.2880    0.4552    0.0463
 C    0.0443    0.4515    0.2942
 C    0.4516    0.4534    0.2114
 C    0.4537    0.0422    0.2933
 C    0.0424    0.0439    0.2116
 C    0.7002    0.0401    0.2996
 C    0.5387    0.2956    0.2056
 C    0.7925    0.4577    0.2977
 C    0.9559    0.2028    0.2072
 C    0.7020    0.4573    0.2069
 C    0.9563    0.2937    0.2978
 C    0.7909    0.0393    0.2091
 C    0.5380    0.2051    0.2963
 C    0.7943    0.2015    0.0441
 C    0.7017    0.2034    0.4615
 C    0.7038    0.2922    0.0434
 C    0.7924    0.2938    0.4616
 C    0.9502    0.2902    0.0497
 C    0.7887    0.0456    0.4557
 C    0.5425    0.2076    0.0477
 C    0.7060    0.4528    0.4573
 C    0.9520    0.2073    0.4569
 C    0.7063    0.0437    0.0478
 C    0.5409    0.2893    0.4592
 C    0.7880    0.4552    0.0463
 C    0.5443    0.4515    0.2942
 C    0.9516    0.4534    0.2114
 C    0.9537    0.0422    0.2933
 C    0.5424    0.0439    0.2116
 C    0.2002    0.5401    0.2996
 C    0.0387    0.7956    0.2056
 C    0.2925    0.9577    0.2977
 C    0.4559    0.7028    0.2072
 C    0.2020    0.9573    0.2069
 C    0.4563    0.7937    0.2978
 C    0.2909    0.5393    0.2091
 C    0.0380    0.7051    0.2963
 C    0.2943    0.7015    0.0441
 C    0.2017    0.7034    0.4615
 C    0.2038    0.7922    0.0434
 C    0.2924    0.7938    0.4616
 C    0.4502    0.7902    0.0497
 C    0.2887    0.5456    0.4557
 C    0.0425    0.7076    0.0477
 C    0.2060    0.9528    0.4573
 C    0.4520    0.7073    0.4569
 C    0.2063    0.5437    0.0478
 C    0.0409    0.7893    0.4592
 C    0.2880    0.9552    0.0463
 C    0.0443    0.9515    0.2942
 C    0.4516    0.9534    0.2114
 C    0.4537    0.5422    0.2933
 C    0.0424    0.5439    0.2116
 C    0.7002    0.5401    0.2996
 C    0.5387    0.7956    0.2056
 C    0.7925    0.9577    0.2977
 C    0.9559    0.7028    0.2072
 C    0.7020    0.9573    0.2069
 C    0.9563    0.7937    0.2978
 C    0.7909    0.5393    0.2091
 C    0.5380    0.7051    0.2963
 C    0.7943    0.7015    0.0441
 C    0.7017    0.7034    0.4615
 C    0.7038    0.7922    0.0434
 C    0.7924    0.7938    0.4616
 C    0.9502    0.7902    0.0497
 C    0.7887    0.5456    0.4557
 C    0.5425    0.7076    0.0477
 C    0.7060    0.9528    0.4573
 C    0.9520    0.7073    0.4569
 C    0.7063    0.5437    0.0478
 C    0.5409    0.7893    0.4592
 C    0.7880    0.9552    0.0463
 C    0.5443    0.9515    0.2942
 C    0.9516    0.9534    0.2114
 C    0.9537    0.5422    0.2933
 C    0.5424    0.5439    0.2116
 C    0.2002    0.0401    0.7996
 C    0.0387    0.2956    0.7056
 C    0.2925    0.4577    0.7977
 C    0.4559    0.2028    0.7072
 C    0.2020    0.4573    0.7069
 C    0.4563    0.2937    0.7978
 C    0.2909    0.0393    0.7091
 C    0.0380    0.2051    0.7963
 C    0.2943    0.2015    0.5441
 C    0.2017    0.2034    0.9615
 C    0.2038    0.2922    0.5434
 C    0.2924    0.2938    0.9616
 C    0.4502    0.2902    0.5497
 C    0.2887    0.0456    0.9557
 C    0.0425    0.2076    0.5477
 C    0.2060    0.4528    0.9573
 C    0.4520    0.2073    0.9569
 C    0.2063    0.0437    0.5478
 C    0.0409    0.2893    0.9592
 C    0.2880    0.4552    0.5463
 C    0.0443    0.4515    0.7942
 C    0.4516    0.4534    0.7114
 C    0.4537    0.0422    0.7933
 C    0.0424    0.0439    0.7116
 C    0.7002    0.0401    0.7996
 C    0.5387    0.2956    0.7056
 C    0.7925    0.4577    0.7977
 C    0.9559    0.2028    0.7072
 C    0.7020    0.4573    0.7069
 C    0.9563    0.2937    0.7978
 C    0.7909    0.0393    0.7091
 C    0.5380    0.2051    0.7963
 C    0.7943    0.2015    0.5441
 C    0.7017    0.2034    0.9615
 C    0.7038    0.2922    0.5434
 C    0.7924    0.2938    0.9616
 C    0.9502    0.2902    0.5497
 C    0.7887    0.0456    0.9557
 C    0.5425    0.2076    0.5477
 C    0.7060    0.4528    0.9573
 C    0.9520    0.2073    0.9569
 C    0.7063    0.0437    0.5478
 C    0.5409    0.2893    0.9592
 C    0.7880    0.4552    0.5463
 C    0.5443    0.4515    0.7942
 C    0.9516    0.4534    0.7114
 C    0.9537    0.0422    0.7933
 C    0.5424    0.0439    0.7116
 C    0.2002    0.5401    0.7996
 C    0.0387    0.7956    0.7056
 C    0.2925    0.9577    0.7977
 C    0.4559    0.7028    0.7072
 C    0.2020    0.9573    0.7069
 C    0.4563    0.7937    0.7978
 C    0.2909    0.5393    0.7091
 C    0.0380    0.7051    0.7963
 C    0.2943    0.7015    0.5441
 C    0.2017    0.7034    0.9615
 C    0.2038    0.7922    0.5434
 C    0.2924    0.7938    0.9616
 C    0.4502    0.7902    0.5497
 C    0.2887    0.5456    0.9557
 C    0.0425    0.7076    0.5477
 C    0.2060    0.9528    0.9573
 C    0.4520    0.7073    0.9569
 C    0.2063    0.5437    0.5478
 C    0.0409    0.7893    0.9592
 C    0.2880    0.9552    0.5463
 C    0.0443    0.9515    0.7942
 C    0.4516    0.9534    0.7114
 C    0.4537    0.5422    0.7933
 C    0.0424    0.5439    0.7116
Ne    0.7136    0.9848    0.8518
Ne    0.7801    0.5109    0.8525
Ne    0.7335    0.5313    0.9033
Ne    0.7597    0.9648    0.9032
Ne    0.9835    0.7814    0.6533
Ne    0.5097    0.7148    0.6532
Ne    0.9636    0.7348    0.6018
Ne    0.5301    0.7609    0.6024
Ne    0.7143    0.5117    0.6531
Ne    0.7815    0.9871    0.6529
Ne    0.7603    0.5328    0.6021
Ne    0.7357    0.9655    0.6026
Ne    0.5103    0.7828    0.8520
Ne    0.9857    0.7156    0.8526
Ne    0.9643    0.7617    0.9032
Ne    0.5315    0.7372    0.9029
Ne    0.8465    0.7149    0.9889
Ne    0.8471    0.7814    0.5150
Ne    0.8978    0.7610    0.9690
Ne    0.8980    0.7348    0.5353
Ne    0.7135    0.6491    0.5149
Ne    0.7800    0.6493    0.9888
Ne    0.7336    0.5978    0.9690
Ne    0.7596    0.5984    0.5354
Ne    0.6476    0.7828    0.9911
Ne    0.6478    0.7156    0.5157
Ne    0.5972    0.7370    0.9695
Ne    0.5966    0.7616    0.5368
Ne    0.7815    0.8479    0.5157
Ne    0.7142    0.8485    0.9911
Ne    0.7358    0.8989    0.5368
Ne    0.7604    0.8992    0.9696
Ne    0.9835    0.8478    0.7189
Ne    0.5096    0.8484    0.7854
Ne    0.9635    0.8992    0.7649
Ne    0.5300    0.8993    0.7388
Ne    0.9858    0.6489    0.7869
Ne    0.5104    0.6491    0.7196
Ne    0.5315    0.5981    0.7656
Ne    0.9642    0.5986    0.7411
Ne    0.6478    0.5110    0.7189
Ne    0.6480    0.9848    0.7853
Ne    0.5965    0.9650    0.7390
Ne    0.5971    0.5314    0.7651
Ne    0.8473    0.9871    0.7194
Ne    0.8466    0.5117    0.7868
Ne    0.8976    0.5328    0.7411
Ne    0.8978    0.9656    0.7657
Ne    0.2136    0.4848    0.3518
Ne    0.2801    0.0109    0.3525
Ne    0.2335    0.0313    0.4033
Ne    0.2597    0.4648    0.4032
Ne    0.4835    0.2814    0.1533
Ne    0.0097    0.2148    0.1532
Ne    0.4636    0.2348    0.1018
Ne    0.0301    0.2609    0.1024
Ne    0.2143    0.0117    0.1531
Ne    0.2815    0.4871    0.1529
Ne    0.2603    0.0328    0.1021
Ne    0.2357    0.4655    0.1026
Ne    0.0103    0.2828    0.3520
Ne    0.4857    0.2156    0.3526
Ne    0.4643    0.2617    0.4032
Ne    0.0315    0.2372    0.4029
Ne    0.3465    0.2149    0.4889
Ne    0.3471    0.2814    0.0150
Ne    0.3978    0.2610    0.4690
Ne    0.3980    0.2348    0.0353
Ne    0.2135    0.1491    0.0149
Ne    0.2800    0.1493    0.4888
Ne    0.2336    0.0978    0.4690
Ne    0.2596    0.0984    0.0354
Ne    0.1476    0.2828    0.4911
Ne    0.1478    0.2156    0.0157
Ne    0.0972    0.2370    0.4695
Ne    0.0966    0.2616    0.0368
Ne    0.2815    0.3479    0.0157
Ne    0.2142    0.3485    0.4911
Ne    0.2358    0.3989    0.0368
Ne    0.2604    0.3992    0.4696
Ne    0.4835    0.3478    0.2189
Ne    0.0096    0.3484    0.2854
Ne    0.4635    0.3992    0.2649
Ne    0.0300    0.3993    0.2388
Ne    0.4858    0.1489    0.2869
Ne    0.0104    0.1491    0.2196
Ne    0.0315    0.0981    0.2656
Ne    0.4642    0.0986    0.2411
Ne    0.1478    0.0110    0.2189
Ne    0.1480    0.4848    0.2853
Ne    0.0965    0.4650    0.2390
Ne    0.0971    0.0314    0.2651
Ne    0.3473    0.4871    0.2194
Ne    0.3466    0.0117    0.2868
Ne    0.3976    0.0328    0.2411
Ne    0.3978    0.4656    0.2657
Ne    0.7136    0.4848    0.3518
Ne    0.7801    0.0109    0.3525
Ne    0.7335    0.0313    0.4033
Ne    0.7597    0.4648    0.4032
Ne    0.9835    0.2814    0.1533
Ne    0.5097    0.2148    0.1532
Ne    0.9636    0.2348    0.1018
Ne    0.5301    0.2609    0.1024
Ne    0.7143    0.0117    0.1531
Ne    0.7815    0.4871    0.1529
Ne    0.7603    0.0328    0.1021
Ne    0.7357    0.4655    0.1026
Ne    0.5103    0.2828    0.3520
Ne    0.9857    0.2156    0.3526
Ne    0.9643    0.2617    0.4032
Ne    0.5315    0.2372    0.4029
Ne    0.8465    0.2149    0.4889
Ne    0.8471    0.2814    0.0150
Ne    0.8978    0.2610    0.4690
Ne    0.8980    0.2348    0.0353
Ne    0.7135    0.1491    0.0149
Ne    0.7800    0.1493    0.4888
Ne    0.7336    0.0978    0.4690
Ne    0.7596    0.0984    0.0354
Ne    0.6476    0.2828    0.4911
Ne    0.6478    0.2156    0.0157
Ne    0.5972    0.2370    0.4695
Ne    0.5966    0.2616    0.0368
Ne    0.7815    0.3479    0.0157
Ne    0.7142    0.3485    0.4911
Ne    0.7358    0.3989    0.0368
Ne    0.7604    0.3992    0.4696
Ne    0.9835    0.3478    0.2189
Ne    0.5096    0.3484    0.2854
Ne    0.9635    0.3992    0.2649
Ne    0.5300    0.3993    0.2388
Ne    0.9858    0.1489    0.2869
Ne    0.5104    0.1491    0.2196
Ne    0.5315    0.0981    0.2656
Ne    0.9642    0.0986    0.2411
Ne    0.6478    0.0110    0.2189
Ne    0.6480    0.4848    0.2853
Ne    0.5965    0.4650    0.2390
Ne    0.5971    0.0314    0.2651
Ne    0.8473    0.4871    0.2194
Ne    0.8466    0.0117    0.2868
Ne    0.8976    0.0328    0.2411
Ne    0.8978    0.4656    0.2657
Ne    0.2136    0.9848    0.3518
Ne    0.2801    0.5109    0.3525
Ne    0.2335    0.5313    0.4033
Ne    0.2597    0.9648    0.4032
Ne    0.4835    0.7814    0.1533
Ne    0.0097    0.7148    0.1532
Ne    0.4636    0.7348    0.1018
Ne    0.0301    0.7609    0.1024
Ne    0.2143    0.5117    0.1531
Ne    0.2815    0.9871    0.1529
Ne    0.2603    0.5328    0.1021
Ne    0.2357    0.9655    0.1026
Ne    0.0103    0.7828    0.3520
Ne    0.4857    0.7156    0.3526
Ne    0.4643    0.7617    0.4032
Ne    0.0315    0.7372    0.4029
Ne    0.3465    0.7149    0.4889
Ne    0.3471    0.7814    0.0150
Ne    0.3978    0.7610    0.4690
Ne    0.3980    0.7348    0.0353
Ne    0.2135    0.6491    0.0149
Ne    0.2800    0.6493    0.4888
Ne    0.2336    0.5978    0.4690
Ne    0.2596    0.5984    0.0354
Ne    0.1476    0.7828    0.4911
Ne    0.1478    0.7156    0.0157
Ne    0.0972    0.7370    0.4695
Ne    0.0966    0.7616    0.0368
Ne    0.2815    0.8479    0.0157
Ne    0.2142    0.8485    0.4911
Ne    0.2358    0.8989    0.0368
Ne    0.2604    0.8992    0.4696
Ne    0.4835    0.8478    0.2189
Ne    0.0096    0.8484    0.2854
Ne    0.4635    0.8992    0.2649
Ne    0.0300    0.8993    0.2388
Ne    0.4858    0.6489    0.2869
Ne    0.0104    0.6491    0.2196
Ne    0.0315    0.5981    0.2656
Ne    0.4642    0.5986    0.2411
Ne    0.1478    0.5110    0.2189
Ne    0.1480    0.9848    0.2853
Ne    0.0965    0.9650    0.2390
Ne    0.0971    0.5314    0.2651
Ne    0.3473    0.9871    0.2194
Ne    0.3466    0.5117    0.2868
Ne    0.3976    0.5328    0.2411
Ne    0.3978    0.9656    0.2657
Ne    0.7136    0.9848    0.3518
Ne    0.7801    0.5109    0.3525
Ne    0.7335    0.5313    0.4033
Ne    0.7597    0.9648    0.4032
Ne    0.9835    0.7814    0.1533
Ne    0.5097    0.7148    0.1532
Ne    0.9636    0.7348    0.1018
Ne    0.5301    0.7609    0.1024
Ne    0.7143    0.5117    0.1531
Ne    0.7815    0.9871    0.1529
Ne    0.7603    0.5328    0.1021
Ne    0.7357    0.9655    0.1026
Ne    0.5103    0.7828    0.3520
Ne    0.9857    0.7156    0.3526
Ne    0.9643    0.7617    0.4032
Ne    0.5315    0.7372    0.4029
Ne    0.8465    0.7149    0.4889
Ne    0.8471    0.7814    0.0150
Ne    0.8978    0.7610    0.4690
Ne    0.8980    0.7348    0.0353
Ne    0.7135    0.6491    0.0149
Ne    0.7800    0.6493    0.4888
Ne    0.7336    0.5978    0.4690
Ne    0.7596    0.5984    0.0354
Ne    0.6476    0.7828    0.4911
Ne    0.6478    0.7156    0.0157
Ne    0.5972    0.7370    0.4695
Ne    0.5966    0.7616    0.0368
Ne    0.7815    0.8479    0.0157
Ne    0.7142    0.8485    0.4911
Ne    0.7358    0.8989    0.0368
Ne    0.7604    0.8992    0.4696
Ne    0.9835    0.8478    0.2189
Ne    0.5096    0.8484    0.2854
Ne    0.9635    0.8992    0.2649
Ne    0.5300    0.8993    0.2388
Ne    0.9858    0.6489    0.2869
Ne    0.5104    0.6491    0.2196
Ne    0.5315    0.5981    0.2656
Ne    0.9642    0.5986    0.2411
Ne    0.6478    0.5110    0.2189
Ne    0.6480    0.9848    0.2853
Ne    0.5965    0.9650    0.2390
Ne    0.5971    0.5314    0.2651
Ne    0.8473    0.9871    0.2194
Ne    0.8466    0.5117    0.2868
Ne    0.8976    0.5328    0.2411
Ne    0.8978    0.9656    0.2657
Ne    0.2136    0.4848    0.8518
Ne    0.2801    0.0109    0.8525
Ne    0.2335    0.0313    0.9033
Ne    0.2597    0.4648    0.9032
Ne    0.4835    0.2814    0.6533
Ne    0.0097    0.2148    0.6532
Ne    0.4636    0.2348    0.6018
Ne    0.0301    0.2609    0.6024
Ne    0.2143    0.0117    0.6531
Ne    0.2815    0.4871    0.6529
Ne    0.2603    0.0328    0.6021
Ne    0.2357    0.4655    0.6026
Ne    0.0103    0.2828    0.8520
Ne    0.4857    0.2156    0.8526
Ne    0.4643    0.2617    0.9032
Ne    0.0315    0.2372    0.9029
Ne    0.3465    0.2149    0.9889
Ne    0.3471    0.2814    0.5150
Ne    0.3978    0.2610    0.9690
Ne    0.3980    0.2348    0.5353
Ne    0.2135    0.1491    0.5149
Ne    0.2800    0.1493    0.9888
Ne    0.2336    0.0978    0.9690
Ne    0.2596    0.0984    0.5354
Ne    0.1476    0.2828    0.9911
Ne    0.1478    0.2156    0.5157
Ne    0.0972    0.2370    0.9695
Ne    0.0966    0.2616    0.5368
Ne    0.2815    0.3479    0.5157
Ne    0.2142    0.3485    0.9911
Ne    0.2358    0.3989    0.5368
Ne    0.2604    0.3992    0.9696
Ne    0.4835    0.3478    0.7189
Ne    0.0096    0.3484    0.7854
Ne    0.4635    0.3992    0.7649
Ne    0.0300    0.3993    0.7388
Ne    0.4858    0.1489    0.7869
Ne    0.0104    0.1491    0.7196
Ne    0.0315    0.0981    0.7656
Ne    0.4642    0.0986    0.7411
Ne    0.1478    0.0110    0.7189
Ne    0.1480    0.4848    0.7853
Ne    0.0965    0.4650    0.7390
Ne    0.0971    0.0314    0.7651
Ne    0.3473    0.4871    0.7194
Ne    0.3466    0.0117    0.7868
Ne    0.3976    0.0328    0.7411
Ne    0.3978    0.4656    0.7657
Ne    0.7136    0.4848    0.8518
Ne    0.7801    0.0109    0.8525
Ne    0.7335    0.0313    0.9033
Ne    0.7597    0.4648    0.9032
Ne    0.9835    0.2814    0.6533
Ne    0.5097    0.2148    0.6532
Ne    0.9636    0.2348    0.6018
Ne    0.5301    0.2609    0.6024
Ne    0.7143    0.0117    0.6531
Ne    0.7815    0.4871    0.6529
Ne    0.7603    0.0328    0.6021
Ne    0.7357    0.4655    0.6026
Ne    0.5103    0.2828    0.8520
Ne    0.9857    0.2156    0.8526
Ne    0.9643    0.2617    0.9032
Ne    0.5315    0.2372    0.9029
Ne    0.8465    0.2149    0.9889
Ne    0.8471    0.2814    0.5150
Ne    0.8978    0.2610    0.9690
Ne    0.8980    0.2348    0.5353
Ne    0.7135    0.1491    0.5149
Ne    0.7800    0.1493    0.9888
Ne    0.7336    0.0978    0.9690
Ne    0.7596    0.0984    0.5354
Ne    0.6476    0.2828    0.9911
Ne    0.6478    0.2156    0.5157
Ne    0.5972    0.2370    0.9695
Ne    0.5966    0.2616    0.5368
Ne    0.7815    0.3479    0.5157
Ne    0.7142    0.3485    0.9911
Ne    0.7358    0.3989    0.5368
Ne    0.7604    0.3992    0.9696
Ne    0.9835    0.3478    0.7189
Ne    0.5096    0.3484    0.7854
Ne    0.9635    0.3992    0.7649
Ne    0.5300    0.3993    0.7388
Ne    0.9858    0.1489    0.7869
Ne    0.5104    0.1491    0.7196
Ne    0.5315    0.0981    0.7656
Ne    0.9642    0.0986    0.7411
Ne    0.6478    0.0110    0.7189
Ne    0.6480    0.4848    0.7853
Ne    0.5965    0.4650    0.7390
Ne    0.5971    0.0314    0.7651
Ne    0.8473    0.4871    0.7194
Ne    0.8466    0.0117    0.7868
Ne    0.8976    0.0328    0.7411
Ne    0.8978    0.4656    0.7657
Ne    0.2136    0.9848    0.8518
Ne    0.2801    0.5109    0.8525
Ne    0.2335    0.5313    0.9033
Ne    0.2597    0.9648    0.9032
Ne    0.4835    0.7814    0.6533
Ne    0.0097    0.7148    0.6532
Ne    0.4636    0.7348    0.6018
Ne    0.0301    0.7609    0.6024
Ne    0.2143    0.5117    0.6531
Ne    0.2815    0.9871    0.6529
Ne    0.2603    0.5328    0.6021
Ne    0.2357    0.9655    0.6026
Ne    0.0103    0.7828    0.8520
Ne    0.4857    0.7156    0.8526
Ne    0.4643    0.7617    0.9032
Ne    0.0315    0.7372    0.9029
Ne    0.3465    0.7149    0.9889
Ne    0.3471    0.7814    0.5150
Ne    0.3978    0.7610    0.9690
Ne    0.3980    0.7348    0.5353
Ne    0.2135    0.6491    0.5149
Ne    0.2800    0.6493    0.9888
Ne    0.2336    0.5978    0.9690
Ne    0.2596    0.5984    0.5354
Ne    0.1476    0.7828    0.9911
Ne    0.1478    0.7156    0.5157
Ne    0.0972    0.7370    0.9695
Ne    0.0966    0.7616    0.5368
Ne    0.2815    0.8479    0.5157
Ne    0.2142    0.8485    0.9911
Ne    0.2358    0.8989    0.5368
Ne    0.2604    0.8992    0.9696
Ne    0.4835    0.8478    0.7189
Ne    0.0096    0.8484    0.7854
Ne    0.4635    0.8992    0.7649
Ne    0.0300    0.8993    0.7388
Ne    0.4858    0.6489    0.7869
Ne    0.0104    0.6491    0.7196
Ne    0.0315    0.5981    0.7656
Ne    0.4642    0.5986    0.7411
Ne    0.1478    0.5110    0.7189
Ne    0.1480    0.9848    0.7853
Ne    0.0965    0.9650    0.7390
Ne    0.0971    0.5314    0.7651
Ne    0.3473    0.9871    0.7194
Ne    0.3466    0.5117    0.7868
Ne    0.3976    0.5328    0.7411
Ne    0.3978    0.9656    0.7657


