data_subtitutions
_audit_creation_method    igor
_audit_author_name 'sponge bob'
_cell_length_a         36.9910011
_cell_length_b         36.9910011
_cell_length_c         36.9910011
_cell_angle_alpha         90.0000000
_cell_angle_beta         90.0000000
_cell_angle_gamma         90.0000000
_cell_volume      50616.0468750
_symmetry_space_group_name_hall 'p 1'
_symmetry_space_group_name_h-m 'p 1'
_symmetry_int_tables_number 1
_symmetry_equiv_pos_as_xyz 'x,y,z'
loop_
_atom_site_label
_atom_site_fract_x
_atom_site_fract_y
_atom_site_fract_z
_atom_site_charge
C8        0.6234000      0.2365000      0.3495000       0.2650000
O3        0.6312000      0.2706000      0.3341000      -0.7000000
H5        0.6299000      0.2684000      0.3087000       0.4350000
C8        0.4001000      0.3990000      0.0584000       0.2650000
O3        0.3693000      0.3766000      0.0627000      -0.7000000
H5        0.3609000      0.3736000      0.0387000       0.4350000
C8        0.8702000      0.1490000      0.5996000       0.2650000
O3        0.8570000      0.1246000      0.6283000      -0.7000000
H5        0.8394000      0.1381000      0.6410000       0.4350000
C8        0.3555000      0.1230000      0.1557000       0.2650000
O3        0.3347000      0.1430000      0.1311000      -0.7000000
H5        0.3144000      0.1514000      0.1444000       0.4350000
C8        0.0184000      0.1398000      0.5469000       0.2650000
O3        0.0176000      0.1341000      0.5855000      -0.7000000
H5        0.0014000      0.1149000      0.5899000       0.4350000
C8        0.2693000      0.7029000      0.7829000       0.2650000
O3        0.2565000      0.7102000      0.8202000      -0.7000000
H5        0.2649000      0.6910000      0.8348000       0.4350000
C8        0.3566000      0.6210000      0.7761000       0.2650000
O3        0.3663000      0.6393000      0.8088000      -0.7000000
H5        0.3514000      0.6599000      0.8102000       0.4350000
C8        0.7778000      0.8316000      0.3733000       0.2650000
O3        0.7856000      0.8659000      0.3568000      -0.7000000
H5        0.8097000      0.8716000      0.3639000       0.4350000
C8        0.9943000      0.8297000      0.5063000       0.2650000
O3        0.9797000      0.8632000      0.5185000      -0.7000000
H5        0.9662000      0.8605000      0.5399000       0.4350000
C8        0.1563000      0.3293000      0.0987000       0.2650000
O3        0.1325000      0.3382000      0.1262000      -0.7000000
H5        0.1446000      0.3298000      0.1471000       0.4350000
C8        0.6612000      0.4652000      0.9883000       0.2650000
O3        0.6364000      0.4723000      0.9597000      -0.7000000
H5        0.6229000      0.4509000      0.9559000       0.4350000
C8        0.6045000      0.8348000      0.7740000       0.2650000
O3        0.5999000      0.8580000      0.7440000      -0.7000000
H5        0.5796000      0.8735000      0.7464000       0.4350000
C8        0.8697000      0.3936000      0.4807000       0.2650000
O3        0.9024000      0.4014000      0.4982000      -0.7000000
H5        0.9205000      0.3966000      0.4809000       0.4350000
C8        0.2582000      0.8956000      0.7221000       0.2650000
O3        0.2344000      0.8648000      0.7158000      -0.7000000
H5        0.2306000      0.8537000      0.7383000       0.4350000
C8        0.5956000      0.3477000      0.6696000       0.2650000
O3        0.6307000      0.3444000      0.6826000      -0.7000000
H5        0.6326000      0.3563000      0.7053000       0.4350000
C8        0.6734000      0.3431000      0.3325000       0.2650000
O3        0.6388000      0.3425000      0.3485000      -0.7000000
H5        0.6304000      0.3185000      0.3468000       0.4350000
C8        0.3336000      0.1608000      0.2452000       0.2650000
O3        0.3620000      0.1819000      0.2352000      -0.7000000
H5        0.3531000      0.1957000      0.2155000       0.4350000
C8        0.3850000      0.1038000      0.6074000       0.2650000
O3        0.4047000      0.0784000      0.5866000      -0.7000000
H5        0.4288000      0.0841000      0.5937000       0.4350000
C8        0.3585000      0.2774000      0.2652000       0.2650000
O3        0.3582000      0.2428000      0.2782000      -0.7000000
H5        0.3623000      0.2268000      0.2584000       0.4350000
C8        0.3517000      0.6023000      0.3631000       0.2650000
O3        0.3477000      0.6196000      0.3295000      -0.7000000
H5        0.3347000      0.6412000      0.3339000       0.4350000
C8        0.4909000      0.3796000      0.0784000       0.2650000
O3        0.4966000      0.3898000      0.0424000      -0.7000000
H5        0.4777000      0.3863000      0.0260000       0.4350000
C8        0.3428000      0.2482000      0.1619000       0.2650000
O3        0.3336000      0.2136000      0.1798000      -0.7000000
H5        0.3144000      0.2063000      0.1646000       0.4350000
C8        0.7872000      0.3122000      0.3098000       0.2650000
O3        0.8067000      0.3325000      0.2839000      -0.7000000
H5        0.8191000      0.3171000      0.2676000       0.4350000
C8        0.5217000      0.5891000      0.8699000       0.2650000
O3        0.4969000      0.5612000      0.8732000      -0.7000000
H5        0.4912000      0.5591000      0.8978000       0.4350000
C8        0.1506000      0.6631000      0.2487000       0.2650000
O3        0.1879000      0.6621000      0.2544000      -0.7000000
H5        0.1949000      0.6691000      0.2779000       0.4350000
C8        0.0679000      0.8624000      0.9897000       0.2650000
O3        0.0551000      0.8729000      0.9529000      -0.7000000
H5        0.0681000      0.8937000      0.9456000       0.4350000
C8        0.0954000      0.4333000      0.9013000       0.2650000
O3        0.0611000      0.4458000      0.9137000      -0.7000000
H5        0.0462000      0.4255000      0.9167000       0.4350000
C8        0.4177000      0.6093000      0.0941000       0.2650000
O3        0.4520000      0.5937000      0.1006000      -0.7000000
H5        0.4517000      0.5688000      0.0960000       0.4350000
C8        0.4150000      0.8689000      0.5950000       0.2650000
O3        0.4036000      0.8854000      0.6269000      -0.7000000
H5        0.3850000      0.8708000      0.6361000       0.4350000
C8        0.8821000      0.8324000      0.7964000       0.2650000
O3        0.8632000      0.8437000      0.8261000      -0.7000000
H5        0.8786000      0.8548000      0.8432000       0.4350000
C8        0.6315000      0.6834000      0.1203000       0.2650000
O3        0.6507000      0.6994000      0.1500000      -0.7000000
H5        0.6537000      0.6796000      0.1660000       0.4350000
C8        0.4312000      0.3460000      0.9897000       0.2650000
O3        0.4501000      0.3793000      0.9870000      -0.7000000
H5        0.4442000      0.3885000      0.9640000       0.4350000
C8        0.8889000      0.9394000      0.4944000       0.2650000
O3        0.9086000      0.9646000      0.5155000      -0.7000000
H5        0.9324000      0.9673000      0.5069000       0.4350000
C8        0.8616000      0.1914000      0.1871000       0.2650000
O3        0.8394000      0.1711000      0.1614000      -0.7000000
H5        0.8535000      0.1508000      0.1546000       0.4350000
C8        0.2128000      0.5931000      0.7240000       0.2650000
O3        0.2374000      0.5980000      0.7534000      -0.7000000
H5        0.2263000      0.6064000      0.7748000       0.4350000
C8        0.3912000      0.9759000      0.6080000       0.2650000
O3        0.4244000      0.9573000      0.6158000      -0.7000000
H5        0.4179000      0.9327000      0.6180000       0.4350000
C8        0.8802000      0.8737000      0.8999000       0.2650000
O3        0.9016000      0.8818000      0.8686000      -0.7000000
H5        0.9254000      0.8748000      0.8745000       0.4350000
C8        0.2630000      0.7761000      0.8748000       0.2650000
O3        0.2755000      0.7732000      0.8386000      -0.7000000
H5        0.2725000      0.7486000      0.8324000       0.4350000
C8        0.1346000      0.7610000      0.2182000       0.2650000
O3        0.1525000      0.7734000      0.1860000      -0.7000000
H5        0.1533000      0.7534000      0.1698000       0.4350000
C8        0.5069000      0.0781000      0.5120000       0.2650000
O3        0.4974000      0.0549000      0.4823000      -0.7000000
H5        0.4807000      0.0381000      0.4917000       0.4350000
C8        0.0862000      0.3950000      0.4212000       0.2650000
O3        0.0703000      0.4236000      0.4004000      -0.7000000
H5        0.0492000      0.4306000      0.4125000       0.4350000
C8        1.0118999      0.5831000      0.8940000       0.2650000
O3        0.9932000      0.5509000      0.8816000      -0.7000000
H5        0.9686000      0.5550000      0.8870000       0.4350000
C8        0.8797000      0.3693000      0.3514000       0.2650000
O3        0.8751000      0.3825000      0.3887000      -0.7000000
H5        0.8824000      0.4069000      0.3906000       0.4350000
C8        0.2695000      0.2109000      0.7499000       0.2650000
O3        0.2847000      0.1871000      0.7745000      -0.7000000
H5        0.2722000      0.1941000      0.7956000       0.4350000
C8        0.9008000      0.7502000      0.7426000       0.2650000
O3        0.8686000      0.7302000      0.7402000      -0.7000000
H5        0.8564000      0.7337000      0.7621000       0.4350000
C8        0.6085000     -0.0217000      0.1084000       0.2650000
O3        0.5985000      0.0065000      0.0838000      -0.7000000
H5        0.5823000      0.0219000      0.0957000       0.4350000
C8        0.4798000      0.8753000      0.4996000       0.2650000
O3        0.5174000      0.8735000      0.5115000      -0.7000000
H5        0.5345000      0.8743000      0.4926000       0.4350000
C8        0.8213000      0.6393000      0.1468000       0.2650000
O3        0.8099000      0.6699000      0.1679000      -0.7000000
H5        0.7878000      0.6785000      0.1587000       0.4350000
C8        0.6923000      0.8764000      0.7432000       0.2650000
O3        0.6685000      0.8694000      0.7121000      -0.7000000
H5        0.6442000      0.8697000      0.7196000       0.4350000
C8        0.3750000      0.9210000      0.4263000       0.2650000
O3        0.3912000      0.8872000      0.4139000      -0.7000000
H5        0.4155000      0.8902000      0.4063000       0.4350000
C8        0.7932000      0.8248000      0.7769000       0.2650000
O3        0.8037000      0.7861000      0.7775000      -0.7000000
H5        0.7975000      0.7778000      0.7542000       0.4350000
C8        0.3771000      0.9586000      0.0254000       0.2650000
O3        0.4044000      0.9556000     -0.0014000      -0.7000000
H5        0.4017000      0.9759000     -0.0168000       0.4350000
C8        0.2425000      0.3698000      0.3433000       0.2650000
O3        0.2098000      0.3482000      0.3485000      -0.7000000
H5        0.2168000      0.3258000      0.3585000       0.4350000
C8        0.0235000      0.4215000      0.6183000       0.2650000
O3        0.0327000      0.4593000      0.6256000      -0.7000000
H5        0.0149000      0.4723000      0.6129000       0.4350000
C8        0.7407000      0.3406000      0.6080000       0.2650000
O3        0.7634000      0.3158000      0.6288000      -0.7000000
H5        0.7491000      0.3041000      0.6464000       0.4350000
C8        0.1979000      0.1300000      0.2184000       0.2650000
O3        0.1641000      0.1373000      0.2025000      -0.7000000
H5        0.1460000      0.1403000      0.2203000       0.4350000
C8        0.8724000      0.0968000      0.1138000       0.2650000
O3        0.8905000      0.1249000      0.1354000      -0.7000000
H5        0.9094000      0.1338000      0.1208000       0.4350000
C8        0.4590000      0.0976000      0.8989000       0.2650000
O3        0.4374000      0.0741000      0.9202000      -0.7000000
H5        0.4488000      0.0749000      0.9429000       0.4350000
C8        0.2768000      0.6975000      0.2238000       0.2650000
O3        0.3141000      0.6967000      0.2325000      -0.7000000
H5        0.3168000      0.6753000      0.2463000       0.4350000
C8        0.2538000      0.1203000      0.3114000       0.2650000
O3        0.2620000      0.1571000      0.3185000      -0.7000000
H5        0.2825000      0.1573000      0.3336000       0.4350000
C8        0.6445000      0.2693000      0.6345000       0.2650000
O3        0.6496000      0.2749000      0.6726000      -0.7000000
H5        0.6439000      0.2998000      0.6729000       0.4350000
C8        0.1663000      0.7304000      0.0979000       0.2650000
O3        0.1690000      0.7245000      0.1365000      -0.7000000
H5        0.1879000      0.7072000      0.1371000       0.4350000
C8        0.1079000      0.5261000      0.8791000       0.2650000
O3        0.1252000      0.5463000      0.9075000      -0.7000000
H5        0.1257000      0.5345000      0.9300000       0.4350000
C8        0.5623000      1.0032001      0.4163000       0.2650000
O3        0.5569000      0.9776000      0.3879000      -0.7000000
H5        0.5318000      0.9732000      0.3885000       0.4350000
C8        0.3422000      0.5161000      0.4598000       0.2650000
O3        0.3647000      0.4907000      0.4785000      -0.7000000
H5        0.3704000      0.4704000      0.4636000       0.4350000
C8        0.1233000      0.4774000      0.6042000       0.2650000
O3        0.0898000      0.4701000      0.5872000      -0.7000000
H5        0.0722000      0.4650000      0.6050000       0.4350000
C8        0.5891000      0.1295000      0.3836000       0.2650000
O3        0.6237000      0.1454000      0.3747000      -0.7000000
H5        0.6339000      0.1308000      0.3563000       0.4350000
C8        0.8578000      0.0400000      0.5366000       0.2650000
O3        0.8954000      0.0370000      0.5266000      -0.7000000
H5        0.8964000      0.0116000      0.5255000       0.4350000
C8        0.9843000      0.4247000      0.3587000       0.2650000
O3        0.9586000      0.4528000      0.3636000      -0.7000000
H5        0.9724000      0.4742000      0.3652000       0.4350000
C8        0.5845000      0.4066000      0.5726000       0.2650000
O3        0.5491000      0.3955000      0.5869000      -0.7000000
H5        0.5323000      0.4139000      0.5807000       0.4350000
C8        0.8883000      0.6515000      0.9167000       0.2650000
O3        0.8818000      0.6161000      0.9040000      -0.7000000
H5        0.8640000      0.6172000      0.8859000       0.4350000
C8        0.8305000      0.6883000      0.2571000       0.2650000
O3        0.8405000      0.7075000      0.2260000      -0.7000000
H5        0.8337000      0.6945000      0.2052000       0.4350000
C8        0.9048000      0.1311000      0.0170000       0.2650000
O3        0.9132000      0.1035000      0.0419000      -0.7000000
H5        0.9105000      0.0825000      0.0278000       0.4350000
C8        0.6810000      0.7699000      0.7775000       0.2650000
O3        0.6664000      0.7388000      0.7564000      -0.7000000
H5        0.6696000      0.7183000      0.7713000       0.4350000
C8        0.1211000      0.8662000      0.3677000       0.2650000
O3        0.1438000      0.8380000      0.3558000      -0.7000000
H5        0.1444000      0.8332000      0.3309000       0.4350000
C8        0.4185000      0.5701000      0.4377000       0.2650000
O3        0.4258000      0.5999000      0.4636000      -0.7000000
H5        0.4106000      0.5956000      0.4839000       0.4350000
C8        0.5150000      0.6315000      0.4809000       0.2650000
O3        0.4988000      0.5972000      0.4885000      -0.7000000
H5        0.4744000      0.6007000      0.4817000       0.4350000
C8        0.3393000      0.8602000      0.1468000       0.2650000
O3        0.3782000      0.8640000      0.1573000      -0.7000000
H5        0.3806000      0.8553000      0.1811000       0.4350000
C8        0.6967000      0.7929000      0.6739000       0.2650000
O3        0.7334000      0.8040000      0.6666000      -0.7000000
H5        0.7375000      0.7886000      0.6466000       0.4350000
C8        0.1522000      0.8648000      0.2552000       0.2650000
O3        0.1511000      0.8375000      0.2852000      -0.7000000
H5        0.1709000      0.8213000      0.2817000       0.4350000
C8        0.6534000      0.1698000      0.8678000       0.2650000
O3        0.6191000      0.1633000      0.8499000      -0.7000000
H5        0.6091000      0.1433000      0.8621000       0.4350000
C8        0.1944000      0.2644000      0.7237000       0.2650000
O3        0.1879000      0.2682000      0.7618000      -0.7000000
H5        0.1765000      0.2903000      0.7664000       0.4350000
C8        0.1208000      0.6380000      0.1433000       0.2650000
O3        0.1446000      0.6196000      0.1192000      -0.7000000
H5        0.1681000      0.6272000      0.1252000       0.4350000
C8        0.3141000      0.7321000      0.6037000       0.2650000
O3        0.3220000      0.7488000      0.6372000      -0.7000000
H5        0.3331000      0.7307000      0.6515000       0.4350000
C8        0.9227000      0.4780000      0.9751000       0.2650000
O3        0.9383000      0.4517000      0.9510000      -0.7000000
H5        0.9486000      0.4634000      0.9308000       0.4350000
C8        1.0081000      0.9975000      0.3625000       0.2650000
O3        0.9746000      0.9770000      0.3671000      -0.7000000
H5        0.9540000      0.9902000      0.3747000       0.4350000
C8        0.7131000      0.2303000      0.2960000       0.2650000
O3        0.7202000      0.2049000      0.2666000      -0.7000000
H5        0.7453000      0.2006000      0.2647000       0.4350000
C8        0.1503000      0.1573000      0.6453000       0.2650000
O3        0.1141000      0.1663000      0.6504000      -0.7000000
H5        0.1011000      0.1454000      0.6434000       0.4350000
C8        0.1460000      0.3406000      0.6504000       0.2650000
O3        0.1790000      0.3255000      0.6521000      -0.7000000
H5        0.1949000      0.3444000      0.6585000       0.4350000
C8        0.6142000      0.0276000      0.8959000       0.2650000
O3        0.5810000      0.0460000      0.9029000      -0.7000000
H5        0.5672000      0.0314000      0.9186000       0.4350000
C8        0.6028000      0.8926000      0.4969000       0.2650000
O3        0.5785000      0.8808000      0.4690000      -0.7000000
H5        0.5777000      0.8981000      0.4501000       0.4350000
C8        0.7145000      0.7450000      0.3209000       0.2650000
O3        0.7013000      0.7480000      0.2852000      -0.7000000
H5        0.7086000      0.7691000      0.2730000       0.4350000
C8        0.6177000      0.7418000      0.2374000       0.2650000
O3        0.6269000      0.7564000      0.2714000      -0.7000000
H5        0.6507000      0.7491000      0.2768000       0.4350000
C8        0.6274000      0.3566000      0.2395000       0.2650000
O3        0.6583000      0.3579000      0.2171000      -0.7000000
H5        0.6477000      0.3525000      0.1944000       0.4350000
C8        0.2741000      0.8832000      0.8445000       0.2650000
O3        0.2930000      0.8805000      0.8118000      -0.7000000
H5        0.2930000      0.8572000      0.8013000       0.4350000
C8        0.3449000      0.3801000      0.9524000       0.2650000
O3        0.3374000      0.3768000      0.9905000      -0.7000000
H5        0.3147000      0.3652000      0.9892000       0.4350000
C8        0.3955000      0.5923000      0.9916000       0.2650000
O3        0.4144000      0.5688000      0.9673000      -0.7000000
H5        0.4355000      0.5810000      0.9592000       0.4350000
C8        0.8067000      0.1776000      0.3958000       0.2650000
O3        0.8059000      0.2125000      0.3785000      -0.7000000
H5        0.7826000      0.2230000      0.3814000       0.4350000
C8        0.0333000      0.5126000      0.5223000       0.2650000
O3        0.0716000      0.5190000      0.5217000      -0.7000000
H5        0.0835000      0.5104000      0.5428000       0.4350000
C8        0.7769000      0.6285000      0.3268000       0.2650000
O3        0.7469000      0.6391000      0.3060000      -0.7000000
H5        0.7242000      0.6402000      0.3174000       0.4350000
C8        0.1227000      0.2717000      0.3468000       0.2650000
O3        0.1560000      0.2914000      0.3447000      -0.7000000
H5        0.1536000      0.3076000      0.3252000       0.4350000
C8        0.6399000      0.6110000      0.4377000       0.2650000
O3        0.6372000      0.6272000      0.4036000      -0.7000000
H5        0.6137000      0.6204000      0.3958000       0.4350000
C8        0.4220000      0.4853000      0.6199000       0.2650000
O3        0.4255000      0.4674000      0.5872000      -0.7000000
H5        0.4025000      0.4652000      0.5761000       0.4350000
C8        0.4558000      0.9719000      0.4701000       0.2650000
O3        0.4525000      0.9994000      0.4431000      -0.7000000
H5        0.4298000      1.0108000      0.4447000       0.4350000
C8        0.1057000      0.0378000      0.0230000       0.2650000
O3        0.0938000      0.0005000      0.0173000      -0.7000000
H5        0.0846000      0.0014000     -0.0065000       0.4350000
C8        0.6437000      0.8732000      0.8640000       0.2650000
O3        0.6088000      0.8607000      0.8729000      -0.7000000
H5        0.5983000      0.8799000      0.8862000       0.4350000
C8        0.4128000      0.1173000      0.4850000       0.2650000
O3        0.3804000      0.1003000      0.4766000      -0.7000000
H5        0.3736000      0.0887000      0.4982000       0.4350000
C8        0.8205000      0.1525000      0.7694000       0.2650000
O3        0.7975000      0.1454000      0.7383000      -0.7000000
H5        0.7902000      0.1211000      0.7405000       0.4350000
C8        0.2693000      0.8724000      0.2298000       0.2650000
O3        0.2414000      0.8426000      0.2290000      -0.7000000
H5        0.2290000      0.8475000      0.2073000       0.4350000
C8        1.0149000      0.9662000      0.0381000       0.2650000
O3        0.9965000      0.9446000      0.0660000      -0.7000000
H5        0.9881000      0.9613000      0.0835000       0.4350000
C8        0.7107000      0.9078000      0.3314000       0.2650000
O3        0.7402000      0.8916000      0.3112000      -0.7000000
H5        0.7575000      0.8837000      0.3285000       0.4350000
C8        0.6448000      0.8002000      0.3582000       0.2650000
O3        0.6280000      0.8183000      0.3287000      -0.7000000
H5        0.6250000      0.7991000      0.3122000       0.4350000
C8        1.0035000      0.9018000      0.4228000       0.2650000
O3        0.9951000      0.9381000      0.4288000      -0.7000000
H5        0.9878000      0.9470000      0.4058000       0.4350000
C8        0.3560000      0.2298000      0.7031000       0.2650000
O3        0.3325000      0.2525000      0.6848000      -0.7000000
H5        0.3195000      0.2401000      0.6666000       0.4350000
C8        0.6028000      0.3809000      0.4866000       0.2650000
O3        0.5820000      0.4139000      0.4801000      -0.7000000
H5        0.5588000      0.4060000      0.4739000       0.4350000
C8        0.1571000      0.6277000      0.6412000       0.2650000
O3        0.1622000      0.6512000      0.6731000      -0.7000000
H5        0.1511000      0.6742000      0.6707000       0.4350000
C8        0.2563000      0.8224000      0.6215000       0.2650000
O3        0.2344000      0.8140000      0.6545000      -0.7000000
H5        0.2376000      0.8340000      0.6699000       0.4350000
C8        0.5707000      0.4966000      0.8954000       0.2650000
O3        0.5691000      0.4785000      0.8613000      -0.7000000
H5        0.5469000      0.4834000      0.8497000       0.4350000
C8        0.1435000      0.9170000      0.0214000       0.2650000
O3        0.1284000      0.9397000      0.0478000      -0.7000000
H5        0.1133000      0.9556000      0.0351000       0.4350000
C8        0.2325000      0.6310000      0.1095000       0.2650000
O3        0.2098000      0.6445000      0.1362000      -0.7000000
H5        0.2152000      0.6331000      0.1587000       0.4350000
C8        0.6556000      0.6683000      0.3249000       0.2650000
O3        0.6804000      0.6458000      0.3455000      -0.7000000
H5        0.6694000      0.6448000      0.3685000       0.4350000
C8        0.7242000      0.2636000      0.9132000       0.2650000
O3        0.7210000      0.2246000      0.9067000      -0.7000000
H5        0.7372000      0.2141000      0.8902000       0.4350000
C8        0.2449000      0.3506000      0.1809000       0.2650000
O3        0.2260000      0.3317000      0.2084000      -0.7000000
H5        0.2433000      0.3301000      0.2274000       0.4350000
C8        0.9313000      0.9254000     -0.0052000       0.2650000
O3        0.8983000      0.9256000      0.0165000      -0.7000000
H5        0.9005000      0.9113000      0.0375000       0.4350000
C8        0.5190000      0.8826000      0.6023000       0.2650000
O3        0.5482000      0.8767000      0.5758000      -0.7000000
H5        0.5363000      0.8783000      0.5534000       0.4350000
C8        0.7418000      0.6096000      0.8291000       0.2650000
O3        0.7605000      0.6412000      0.8445000      -0.7000000
H5        0.7413000      0.6539000      0.8559000       0.4350000
C8        0.8972000      0.8416000      0.1895000       0.2650000
O3        0.8797000      0.8210000      0.2187000      -0.7000000
H5        0.8821000      0.7961000      0.2144000       0.4350000
C8        0.3468000      0.7104000      0.7240000       0.2650000
O3        0.3368000      0.6985000      0.6896000      -0.7000000
H5        0.3158000      0.6840000      0.6902000       0.4350000
C8        0.8991000      0.5026000      0.0711000       0.2650000
O3        0.8970000      0.5331000      0.0473000      -0.7000000
H5        0.9208000      0.5372000      0.0392000       0.4350000
C8        0.7705000      0.6729000      0.7332000       0.2650000
O3        0.7967000      0.6618000      0.7069000      -0.7000000
H5        0.8145000      0.6799000      0.7083000       0.4350000
C8        0.9351000      0.3966000      0.5974000       0.2650000
O3        0.9118000      0.4144000      0.5712000      -0.7000000
H5        0.9097000      0.3979000      0.5518000       0.4350000
C8        0.0292000      0.9318000      0.5458000       0.2650000
O3        0.0408000      0.8997000      0.5285000      -0.7000000
H5        0.0195000      0.8864000      0.5247000       0.4350000
C8        0.3533000      0.8264000      0.3558000       0.2650000
O3        0.3376000      0.8599000      0.3677000      -0.7000000
H5        0.3536000      0.8710000      0.3841000       0.4350000
C8        0.7123000      0.1579000      0.3520000       0.2650000
O3        0.6948000      0.1722000      0.3812000      -0.7000000
H5        0.6710000      0.1625000      0.3812000       0.4350000
C8        0.1919000      0.8570000      0.7924000       0.2650000
O3        0.2184000      0.8318000      0.7772000      -0.7000000
H5        0.2155000      0.8091000      0.7888000       0.4350000
C8        0.7567000      0.3298000      0.8018000       0.2650000
O3        0.7610000      0.3093000      0.8324000      -0.7000000
H5        0.7580000      0.2844000      0.8270000       0.4350000
C8        0.3531000      0.1706000      0.8891000       0.2650000
O3        0.3203000      0.1746000      0.8708000      -0.7000000
H5        0.3106000      0.1508000      0.8713000       0.4350000
C8        0.6664000      0.8340000      0.2444000       0.2650000
O3        0.7023000      0.8205000      0.2438000      -0.7000000
H5        0.7186000      0.8402000      0.2425000       0.4350000
C8        0.0719000      0.0773000      0.1235000       0.2650000
O3        0.0862000      0.1041000      0.1000000      -0.7000000
H5        0.1033000      0.1179000      0.1133000       0.4350000
C8        0.3639000      0.0311000      0.4160000       0.2650000
O3        0.3863000      0.0343000      0.4458000      -0.7000000
H5        0.3839000      0.0581000      0.4547000       0.4350000
C8        0.6326000      0.8770000      0.6158000       0.2650000
O3        0.6085000      0.9048000      0.6053000      -0.7000000
H5        0.5869000      0.8945000      0.5958000       0.4350000
C8        0.7234000      0.3782000      0.6945000       0.2650000
O3        0.7223000      0.3887000      0.7313000      -0.7000000
H5        0.7469000      0.3933000      0.7369000       0.4350000
C8        0.5682000      0.5801000      0.1527000       0.2650000
O3        0.5658000      0.6047000      0.1244000      -0.7000000
H5        0.5409000      0.6099000      0.1273000       0.4350000
C8        0.8583000      0.8856000      0.7118000       0.2650000
O3        0.8497000      0.8505000      0.7026000      -0.7000000
H5        0.8243000      0.8502000      0.6996000       0.4350000
C8        0.3628000      0.4620000      0.8805000       0.2650000
O3        0.3877000      0.4552000      0.9108000      -0.7000000
H5        0.3796000      0.4712000      0.9291000       0.4350000
C8        0.3452000      0.2617000      0.8451000       0.2650000
O3        0.3166000      0.2630000      0.8186000      -0.7000000
H5        0.3012000      0.2428000      0.8216000       0.4350000
C8        0.6412000      0.1217000      0.2844000       0.2650000
O3        0.6402000      0.1030000      0.3176000      -0.7000000
H5        0.6372000      0.0787000      0.3106000       0.4350000
C8        0.7153000      0.2622000      0.3944000       0.2650000
O3        0.7364000      0.2311000      0.3950000      -0.7000000
H5        0.7204000      0.2114000      0.3917000       0.4350000
C8        0.5074000     -0.0025000      0.9578000       0.2650000
O3        0.5288000      0.0278000      0.9432000      -0.7000000
H5        0.5185000      0.0489000      0.9529000       0.4350000
C8        0.2455000      0.3268000      0.8129000       0.2650000
O3        0.2768000      0.3276000      0.8345000      -0.7000000
H5        0.2852000      0.3036000      0.8359000       0.4350000
C8        0.3604000      0.1395000      0.7499000       0.2650000
O3        0.3295000      0.1560000      0.7299000      -0.7000000
H5        0.3160000      0.1649000      0.7496000       0.4350000
C8        0.1379000      0.9854000      0.5458000       0.2650000
O3        0.1103000      0.9783000      0.5177000      -0.7000000
H5        0.1171000      0.9551000      0.5096000       0.4350000
C8        0.7353000      0.7788000      0.8989000       0.2650000
O3        0.7096000      0.7529000      0.8829000      -0.7000000
H5        0.6912000      0.7686000      0.8743000       0.4350000
C8        0.7372000      0.6837000      0.1016000       0.2650000
O3        0.7578000      0.7018000      0.1300000      -0.7000000
H5        0.7456000      0.7234000      0.1354000       0.4350000
C8        0.5077000      0.3901000      0.4233000       0.2650000
O3        0.5131000      0.3998000      0.4604000      -0.7000000
H5        0.5077000      0.3785000      0.4736000       0.4350000
C8        0.2693000      0.1054000      0.8340000       0.2650000
O3        0.2741000      0.1198000      0.8705000      -0.7000000
H5        0.2517000      0.1168000      0.8824000       0.4350000
C8        0.6569000      0.7210000      0.6112000       0.2650000
O3        0.6388000      0.6956000      0.6339000      -0.7000000
H5        0.6329000      0.7042000      0.6572000       0.4350000
C8        0.6137000      0.5880000      0.9118000       0.2650000
O3        0.6034000      0.6072000      0.9446000      -0.7000000
H5        0.6053000      0.5907000      0.9637000       0.4350000
C8        0.6561000      0.5880000      0.0968000       0.2650000
O3        0.6193000      0.5834000      0.0841000      -0.7000000
H5        0.6015000      0.5923000      0.0998000       0.4350000
C8        0.0957000      0.9775000      0.1144000       0.2650000
O3        0.1081000      0.9421000      0.1168000      -0.7000000
H5        0.1171000      0.9378000      0.0933000       0.4350000
C8        0.1179000      0.7445000      0.6380000       0.2650000
O3        0.1398000      0.7183000      0.6564000      -0.7000000
H5        0.1627000      0.7286000      0.6526000       0.4350000
C8        0.3374000      0.6442000      0.1433000       0.2650000
O3        0.3425000      0.6607000      0.1081000      -0.7000000
H5        0.3290000      0.6823000      0.1071000       0.4350000
C8        0.9873000      0.4650000      0.8632000       0.2650000
O3        0.9708000      0.4793000      0.8926000      -0.7000000
H5        0.9816000      0.5023000      0.8924000       0.4350000
C8        0.3130000      0.2306000      0.3620000       0.2650000
O3        0.3314000      0.2044000      0.3404000      -0.7000000
H5        0.3428000      0.2138000      0.3195000       0.4350000
C8        0.1563000      0.6407000      0.8421000       0.2650000
O3        0.1784000      0.6375000      0.8105000      -0.7000000
H5        0.1638000      0.6472000      0.7921000       0.4350000
C8        0.4566000      0.1417000      0.0787000       0.2650000
O3        0.4312000      0.1595000      0.0551000      -0.7000000
H5        0.4174000      0.1754000      0.0697000       0.4350000
C8        0.9116000      0.0003000      0.8702000       0.2650000
O3        0.9113000      0.0314000      0.8913000      -0.7000000
H5        0.8872000      0.0370000      0.8970000       0.4350000
C8        0.1557000      0.7245000      0.3358000       0.2650000
O3        0.1749000      0.6937000      0.3439000      -0.7000000
H5        0.1606000      0.6761000      0.3555000       0.4350000
C8        1.0135000      0.6215000      0.4917000       0.2650000
O3        0.9795000      0.6223000      0.4725000      -0.7000000
H5        0.9605000      0.6193000      0.4898000       0.4350000
C8        0.9821000      1.0132000      0.4874000       0.2650000
O3        0.9716000      0.9746000      0.4839000      -0.7000000
H5        0.9840000      0.9624000      0.4652000       0.4350000
C8        0.8513000      0.3758000      0.2276000       0.2650000
O3        0.8132000      0.3677000      0.2236000      -0.7000000
H5        0.8034000      0.3566000      0.2444000       0.4350000
C8        0.8916000      0.9016000      0.3787000       0.2650000
O3        0.8648000      0.8764000      0.3641000      -0.7000000
H5        0.8751000      0.8529000      0.3625000       0.4350000
C8        0.8486000      0.2336000      0.8432000       0.2650000
O3        0.8115000      0.2506000      0.8470000      -0.7000000
H5        0.8151000      0.2701000      0.8632000       0.4350000
C8        0.8997000      0.5320000      0.8956000       0.2650000
O3        0.9237000      0.5626000      0.8913000      -0.7000000
H5        0.9091000      0.5815000      0.9002000       0.4350000
C8        0.8289000      0.2939000      0.1784000       0.2650000
O3        0.8137000      0.2857000      0.2133000      -0.7000000
H5        0.7899000      0.2949000      0.2165000       0.4350000
C8        0.0419000      0.4796000      0.0670000       0.2650000
O3        0.0187000      0.4853000      0.0976000      -0.7000000
H5        0.0165000      0.4631000      0.1103000       0.4350000
C8        0.8772000      0.3228000      0.7402000       0.2650000
O3        0.8537000      0.3393000      0.7131000      -0.7000000
H5        0.8570000      0.3258000      0.6918000       0.4350000
C8        0.8451000      0.3501000      0.8424000       0.2650000
O3        0.8221000      0.3285000      0.8643000      -0.7000000
H5        0.7983000      0.3279000      0.8548000       0.4350000
C8        0.0273000      0.5196000      0.9778000       0.2650000
O3        0.0514000      0.4923000      0.9673000      -0.7000000
H5        0.0446000      0.4831000      0.9446000       0.4350000
C8        0.4198000      0.8626000      0.9835000       0.2650000
O3        0.3904000      0.8845000      0.9732000      -0.7000000
H5        0.3982000      0.9083000      0.9789000       0.4350000
C8        0.9327000      0.1181000      0.5201000       0.2650000
O3        0.9145000      0.0946000      0.4944000      -0.7000000
H5        0.9081000      0.0735000      0.5072000       0.4350000
C8        0.8153000      0.8391000      0.2795000       0.2650000
O3        0.8489000      0.8172000      0.2822000      -0.7000000
H5        0.8621000      0.8218000      0.2609000       0.4350000
C8        0.5290000      0.6515000      1.0003000       0.2650000
O3        0.5355000      0.6283000      0.9673000      -0.7000000
H5        0.5609000      0.6261000      0.9649000       0.4350000
C8       -0.0179000      0.4798000      0.4528000       0.2650000
O3        0.0175000      0.4623000      0.4490000      -0.7000000
H5        0.0202000      0.4496000      0.4712000       0.4350000
C8        0.0646000      0.3825000      0.0149000       0.2650000
O3        0.0438000      0.3595000     -0.0068000      -0.7000000
H5        0.0276000      0.3466000      0.0081000       0.4350000
C8        0.8491000      0.1319000      0.8651000       0.2650000
O3        0.8778000      0.1098000      0.8781000      -0.7000000
H5        0.8659000      0.0914000      0.8908000       0.4350000
C8        0.6507000      0.6018000      0.6247000       0.2650000
O3        0.6345000      0.6258000      0.6001000      -0.7000000
H5        0.6339000      0.6488000      0.6112000       0.4350000
C8        0.6142000      0.7713000      0.8535000       0.2650000
O3        0.6431000      0.7897000      0.8689000      -0.7000000
H5        0.6334000      0.8129000      0.8732000       0.4350000
C8        0.4304000      0.9240000      0.1279000       0.2650000
O3        0.3969000      0.9318000      0.1119000      -0.7000000
H5        0.3825000      0.9121000      0.1203000       0.4350000
C8       -0.0081000      0.3620000      0.9086000       0.2650000
O3        0.0192000      0.3825000      0.9248000      -0.7000000
H5        0.0278000      0.3712000      0.9459000       0.4350000
C8        0.3293000      0.4623000      0.5682000       0.2650000
O3        0.3606000      0.4607000      0.5455000      -0.7000000
H5        0.3539000      0.4690000      0.5223000       0.4350000
C8        0.4828000      0.0611000      0.1395000       0.2650000
O3        0.5042000      0.0608000      0.1057000      -0.7000000
H5        0.5017000      0.0400000      0.0908000       0.4350000
C8        0.6001000      0.5899000      0.5190000       0.2650000
O3        0.6156000      0.5728000      0.5488000      -0.7000000
H5        0.6161000      0.5920000      0.5655000       0.4350000
C8        0.2338000      0.7656000      0.2822000       0.2650000
O3        0.2119000      0.7967000      0.2728000      -0.7000000
H5        0.2225000      0.8129000      0.2563000       0.4350000
C8        0.3360000      0.3477000      0.1398000       0.2650000
O3        0.3312000      0.3279000      0.1084000      -0.7000000
H5        0.3452000      0.3363000      0.0889000       0.4350000
C8        0.3447000      0.3466000      0.7556000       0.2650000
O3        0.3298000      0.3633000      0.7886000      -0.7000000
H5        0.3130000      0.3479000      0.8002000       0.4350000
C8        0.1149000      0.4198000      0.1108000       0.2650000
O3        0.0854000      0.3977000      0.1233000      -0.7000000
H5        0.0933000      0.3733000      0.1249000       0.4350000
C8        0.5720000      0.9448000      0.9132000       0.2650000
O3        0.5623000      0.9078000      0.9097000      -0.7000000
H5        0.5369000      0.9089000      0.9056000       0.4350000
C8        0.6334000      0.0008000      0.5261000       0.2650000
O3        0.6285000      0.0254000      0.5566000      -0.7000000
H5        0.6266000      0.0116000      0.5782000       0.4350000
C8        0.2676000      0.6812000      0.3360000       0.2650000
O3        0.3052000      0.6742000      0.3336000      -0.7000000
H5        0.3171000      0.6961000      0.3390000       0.4350000
C8        0.2449000      0.1622000      0.1362000       0.2650000
O3        0.2711000      0.1873000      0.1514000      -0.7000000
H5        0.2614000      0.1944000      0.1738000       0.4350000
C8        0.1711000      0.7510000      0.8410000       0.2650000
O3        0.1846000      0.7513000      0.8048000      -0.7000000
H5        0.1990000      0.7302000      0.8053000       0.4350000
C8        0.6531000      0.4247000      0.8713000       0.2650000
O3        0.6145000      0.4188000      0.8775000      -0.7000000
H5        0.6023000      0.4390000      0.8678000       0.4350000
C8        0.4079000      0.4971000      0.0873000       0.2650000
O3        0.4379000      0.5217000      0.0827000      -0.7000000
H5        0.4406000      0.5269000      0.0579000       0.4350000
C8        0.8421000      0.5796000     -0.0079000       0.2650000
O3        0.8597000      0.5872000      0.0238000      -0.7000000
H5        0.8753000      0.5677000      0.0292000       0.4350000
C8        0.9813000      0.0852000      0.8808000       0.2650000
O3        0.9735000      0.0646000      0.9113000      -0.7000000
H5        0.9521000      0.0516000      0.9059000       0.4350000
C8        0.7318000      0.4001000      0.2611000       0.2650000
O3        0.7218000      0.3641000      0.2490000      -0.7000000
H5        0.6983000      0.3647000      0.2387000       0.4350000
C8        0.5069000      0.8851000      0.0822000       0.2650000
O3        0.5309000      0.9148000      0.0752000      -0.7000000
H5        0.5507000      0.9089000      0.0903000       0.4350000
C8        0.5226000      0.0989000      1.0084000       0.2650000
O3        0.4950000      0.0833000      0.9851000      -0.7000000
H5        0.4742000      0.0843000      1.0000000       0.4350000
C8        0.0362000      0.9848000      0.6331000       0.2650000
O3        0.0030000      1.0008000      0.6207000      -0.7000000
H5       -0.0132000      0.9851000      0.6085000       0.4350000
C8        0.0362000      0.6161000      0.4001000       0.2650000
O3        0.0652000      0.5912000      0.3920000      -0.7000000
H5        0.0619000      0.5707000      0.4069000       0.4350000
C8        0.4579000      0.6418000      0.9175000       0.2650000
O3        0.4674000      0.6199000      0.9491000      -0.7000000
H5        0.4923000      0.6256000      0.9519000       0.4350000
C8        0.1557000      0.5999000      0.3733000       0.2650000
O3        0.1292000      0.6269000      0.3641000      -0.7000000
H5        0.1071000      0.6147000      0.3682000       0.4350000
C8        0.9343000      0.7272000      0.2201000       0.2650000
O3        0.9037000      0.7496000      0.2203000      -0.7000000
H5        0.8856000      0.7321000      0.2233000       0.4350000
C8        0.7405000      0.6583000      0.6285000       0.2650000
O3        0.7610000      0.6888000      0.6393000      -0.7000000
H5        0.7759000      0.6818000      0.6588000       0.4350000
C8        0.5899000      0.0971000      0.1284000       0.2650000
O3        0.5715000      0.0633000      0.1217000      -0.7000000
H5        0.5466000      0.0681000      0.1173000       0.4350000
C8        0.6480000      0.6334000      0.2319000       0.2650000
O3        0.6712000      0.6439000      0.2014000      -0.7000000
H5        0.6942000      0.6518000      0.2090000       0.4350000
C8        0.2160000      0.2520000      0.3982000       0.2650000
O3        0.2165000      0.2830000      0.3763000      -0.7000000
H5        0.1922000      0.2866000      0.3687000       0.4350000
C8        0.0738000      0.5709000      0.6272000       0.2650000
O3        0.0597000      0.6028000      0.6085000      -0.7000000
H5        0.0606000      0.5964000      0.5839000       0.4350000
C8        0.7632000      0.2784000      0.1057000       0.2650000
O3        0.7383000      0.2492000      0.1103000      -0.7000000
H5        0.7513000      0.2287000      0.1181000       0.4350000
C8        0.3693000      0.5907000      0.9024000       0.2650000
O3        0.3620000      0.6256000      0.8845000      -0.7000000
H5        0.3701000      0.6253000      0.8602000       0.4350000
C8        0.5864000      0.5388000      0.0122000       0.2650000
O3        0.6077000      0.5712000      0.0051000      -0.7000000
H5        0.6188000      0.5774000      0.0273000       0.4350000
C8        0.9838000      0.8226000      0.9727000       0.2650000
O3        0.9813000      0.8562000      0.9567000      -0.7000000
H5        1.0024000      0.8705000      0.9592000       0.4350000
C8        0.6093000      0.4258000      0.3944000       0.2650000
O3        0.5993000      0.4628000      0.4025000      -0.7000000
H5        0.6112000      0.4688000      0.4244000       0.4350000
C8        0.7669000      0.0687000      0.6940000       0.2650000
O3        0.7629000      0.0879000      0.7269000      -0.7000000
H5        0.7383000      0.0949000      0.7264000       0.4350000
C8        0.8137000      0.7599000      0.6867000       0.2650000
O3        0.7845000      0.7561000      0.7121000      -0.7000000
H5        0.7623000      0.7640000      0.7018000       0.4350000
C8        0.8370000      0.6604000      0.6139000       0.2650000
O3        0.8697000      0.6499000      0.6315000      -0.7000000
H5        0.8713000      0.6639000      0.6529000       0.4350000
C8        0.6821000      0.6556000      0.8956000       0.2650000
O3        0.7061000      0.6775000      0.8721000      -0.7000000
H5        0.7013000      0.7021000      0.8762000       0.4350000
C8        0.3568000      0.3306000      0.6604000       0.2650000
O3        0.3214000      0.3249000      0.6745000      -0.7000000
H5        0.3214000      0.3025000      0.6864000       0.4350000
C8        0.3790000      0.6147000      0.6364000       0.2650000
O3        0.3982000      0.6050000      0.6053000      -0.7000000
H5        0.4233000      0.6037000      0.6091000       0.4350000
C8        0.1227000      0.3966000      0.5318000       0.2650000
O3        0.0887000      0.4136000      0.5404000      -0.7000000
H5        0.0930000      0.4377000      0.5480000       0.4350000
C8        0.8543000      0.4225000      0.9029000       0.2650000
O3        0.8908000      0.4174000      0.8929000      -0.7000000
H5        0.9051000      0.4274000      0.9113000       0.4350000
C8        0.6372000      0.8775000      0.1087000       0.2650000
O3        0.6004000      0.8840000      0.0960000      -0.7000000
H5        0.6023000      0.8802000      0.0708000       0.4350000
C8        0.6666000      0.1560000      0.6631000       0.2650000
O3        0.6442000      0.1541000      0.6956000      -0.7000000
H5        0.6434000      0.1773000      0.7061000       0.4350000
C8        0.5785000      0.1314000      0.9362000       0.2650000
O3        0.5864000      0.1181000      0.8991000      -0.7000000
H5        0.5820000      0.0930000      0.8972000       0.4350000
C8        0.9613000      0.8605000      0.6077000       0.2650000
O3        0.9408000      0.8407000      0.5831000      -0.7000000
H5        0.9227000      0.8280000      0.5961000       0.4350000
C8        0.3512000      0.7291000      0.3896000       0.2650000
O3        0.3241000      0.7386000      0.3628000      -0.7000000
H5        0.3041000      0.7510000      0.3725000       0.4350000
C8        0.7167000      0.2852000      0.2098000       0.2650000
O3        0.7453000      0.3041000      0.2265000      -0.7000000
H5        0.7367000      0.3282000      0.2279000       0.4350000
C8        0.5050000      0.9897000      0.8399000       0.2650000
O3        0.4753000      0.9678000      0.8321000      -0.7000000
H5        0.4625000      0.9727000      0.8105000       0.4350000
C8        0.8913000      0.4861000      0.4155000       0.2650000
O3        0.9002000      0.4509000      0.4012000      -0.7000000
H5        0.9232000      0.4547000      0.3901000       0.4350000
C8        0.1360000      0.4709000      1.0087000       0.2650000
O3        0.1257000      0.4920000      0.9770000      -0.7000000
H5        0.1003000      0.4890000      0.9759000       0.4350000
C8        0.7010000      0.1390000      0.7651000       0.2650000
O3        0.6937000      0.1084000      0.7426000      -0.7000000
H5        0.6699000      0.1127000      0.7350000       0.4350000
C8        0.7450000      0.1984000      0.8248000       0.2650000
O3        0.7686000      0.1957000      0.8562000      -0.7000000
H5        0.7880000      0.2122000      0.8548000       0.4350000
C8        0.2901000      0.1552000      0.6480000       0.2650000
O3        0.3133000      0.1279000      0.6645000      -0.7000000
H5        0.3179000      0.1327000      0.6891000       0.4350000
C8        0.0230000      0.1303000      0.4001000       0.2650000
O3        0.0533000      0.1079000      0.3950000      -0.7000000
H5        0.0630000      0.1000000      0.4174000       0.4350000
C8        0.8302000      0.7191000      0.8391000       0.2650000
O3        0.8302000      0.7256000      0.8021000      -0.7000000
H5        0.8161000      0.7464000      0.7980000       0.4350000
C8        0.1049000      0.8491000      0.1560000       0.2650000
O3        0.1317000      0.8764000      0.1514000      -0.7000000
H5        0.1211000      0.8997000      0.1490000       0.4350000
C8        0.1865000      0.2414000      0.6074000       0.2650000
O3        0.2068000      0.2622000      0.6329000      -0.7000000
H5        0.1903000      0.2811000      0.6380000       0.4350000
C8        0.1084000      0.8854000      0.4663000       0.2650000
O3        0.1022000      0.9100000      0.4955000      -0.7000000
H5        0.0792000      0.9045000      0.5047000       0.4350000
C8        0.4682000      0.4866000      0.8226000       0.2650000
O3        0.5044000      0.4953000      0.8316000      -0.7000000
H5        0.5050000      0.5177000      0.8440000       0.4350000
C8        0.1298000      0.1438000      0.3541000       0.2650000
O3        0.0973000      0.1517000      0.3376000      -0.7000000
H5        0.0800000      0.1392000      0.3520000       0.4350000
C8        0.1349000      0.2930000      0.8845000       0.2650000
O3        0.1481000      0.2741000      0.8537000      -0.7000000
H5        0.1468000      0.2898000      0.8334000       0.4350000
C8        0.9421000      0.0278000     -0.0111000       0.2650000
O3        0.9159000      0.0395000      0.0157000      -0.7000000
H5        0.8959000      0.0241000      0.0124000       0.4350000
C8        0.1122000      0.6039000      0.5117000       0.2650000
O3        0.0843000      0.5915000      0.5353000      -0.7000000
H5        0.0784000      0.5666000      0.5328000       0.4350000
C8        0.7548000      0.1476000      0.1400000       0.2650000
O3        0.7667000      0.1838000      0.1390000      -0.7000000
H5        0.7915000      0.1846000      0.1446000       0.4350000
C8        0.8729000      0.4880000      0.5307000       0.2650000
O3        0.9067000      0.4771000      0.5472000      -0.7000000
H5        0.9035000      0.4544000      0.5585000       0.4350000
C8        0.1479000      0.1868000      0.7564000       0.2650000
O3        0.1838000      0.1936000      0.7705000      -0.7000000
H5        0.1836000      0.2179000      0.7780000       0.4350000
C8        0.4855000      0.8808000      0.3909000       0.2650000
O3        0.4566000      0.9043000      0.3974000      -0.7000000
H5        0.4625000      0.9278000      0.3904000       0.4350000
C8        0.8421000      0.0627000      0.9483000       0.2650000
O3        0.8432000      0.0538000      0.9108000      -0.7000000
H5        0.8232000      0.0384000      0.9075000       0.4350000
C8        0.1079000      0.6202000      0.9675000       0.2650000
O3        0.1054000      0.6158000      0.9275000      -0.7000000
H5        0.1125000      0.5934000      0.9178000       0.4350000
C8        0.8202000      0.8480000      0.1184000       0.2650000
O3        0.8564000      0.8386000      0.1092000      -0.7000000
H5        0.8575000      0.8134000      0.1135000       0.4350000
C8        0.2793000      0.6264000      0.8570000       0.2650000
O3        0.3001000      0.6588000      0.8599000      -0.7000000
H5        0.3201000      0.6534000      0.8748000       0.4350000
C8        0.8702000      0.7348000      0.1271000       0.2650000
O3        0.8599000      0.7702000      0.1330000      -0.7000000
H5        0.8410000      0.7694000      0.1500000       0.4350000
C8        0.9224000      0.5988000      0.1041000       0.2650000
O3        0.9105000      0.6229000      0.0762000      -0.7000000
H5        0.8943000      0.6096000      0.0619000       0.4350000
C8        0.4931000      0.6231000      0.5820000       0.2650000
O3        0.4715000      0.6001000      0.6077000      -0.7000000
H5        0.4882000      0.5837000      0.6180000       0.4350000
C8        0.3839000      0.3979000      0.4885000       0.2650000
O3        0.3998000      0.4066000      0.4552000      -0.7000000
H5        0.4196000      0.4209000      0.4625000       0.4350000
C8        0.4731000      0.9943000      0.3520000       0.2650000
O3        0.4871000      0.9754000      0.3833000      -0.7000000
H5        0.4739000      0.9851000      0.4031000       0.4350000
C8        0.4204000      0.5539000      0.5369000       0.2650000
O3        0.4004000      0.5861000      0.5358000      -0.7000000
H5        0.3979000      0.5945000      0.5599000       0.4350000
C8        0.6026000      0.8981000      0.3858000       0.2650000
O3        0.5761000      0.9116000      0.4077000      -0.7000000
H5        0.5672000      0.9327000      0.3963000       0.4350000
C8        0.4701000      0.1479000      0.5793000       0.2650000
O3        0.4731000      0.1125000      0.5969000      -0.7000000
H5        0.4977000      0.1062000      0.5983000       0.4350000
C8        0.5355000      0.6061000      0.3733000       0.2650000
O3        0.5750000      0.6039000      0.3750000      -0.7000000
H5        0.5796000      0.5793000      0.3804000       0.4350000
C8        0.4766000      0.1054000      0.3993000       0.2650000
O3        0.4982000      0.0754000      0.4109000      -0.7000000
H5        0.4923000      0.0697000      0.4352000       0.4350000
C8        0.3863000      0.7540000      0.2706000       0.2650000
O3        0.3574000      0.7678000      0.2484000      -0.7000000
H5        0.3420000      0.7477000      0.2447000       0.4350000
C8        0.1033000      0.1914000      0.2409000       0.2650000
O3        0.1095000      0.1546000      0.2465000      -0.7000000
H5        0.0995000      0.1484000      0.2690000       0.4350000
C8        0.5996000      0.2622000      0.2371000       0.2650000
O3        0.6256000      0.2533000      0.2644000      -0.7000000
H5        0.6353000      0.2306000      0.2576000       0.4350000
C8        0.1333000      0.3831000      0.2966000       0.2650000
O3        0.1563000      0.3512000      0.3017000      -0.7000000
H5        0.1782000      0.3574000      0.3130000       0.4350000
C8        0.4347000      0.3825000      0.8875000       0.2650000
O3        0.4306000      0.3955000      0.9227000      -0.7000000
H5        0.4136000      0.4139000      0.9164000       0.4350000
C8        0.8532000      0.2352000      0.6696000       0.2650000
O3        0.8705000      0.2693000      0.6639000      -0.7000000
H5        0.8599000      0.2820000      0.6445000       0.4350000
C8        0.2322000      0.7307000      0.6737000       0.2650000
O3        0.2022000      0.7472000      0.6534000      -0.7000000
H5        0.2084000      0.7715000      0.6499000       0.4350000
C8        0.0962000      0.1125000      0.4934000       0.2650000
O3        0.0703000      0.0973000      0.4685000      -0.7000000
H5        0.0733000      0.0719000      0.4680000       0.4350000
C8        0.5899000      0.7364000      0.7134000       0.2650000
O3        0.6226000      0.7250000      0.6969000      -0.7000000
H5        0.6402000      0.7340000      0.7131000       0.4350000
C8        0.6818000      0.7856000      0.1530000       0.2650000
O3        0.6980000      0.7510000      0.1430000      -0.7000000
H5        0.6794000      0.7337000      0.1430000       0.4350000
C8        0.6621000      0.3604000      0.7805000       0.2650000
O3        0.6548000      0.3709000      0.7442000      -0.7000000
H5        0.6780000      0.3777000      0.7359000       0.4350000
C8        0.6012000      0.1062000      0.5177000       0.2650000
O3        0.5942000      0.0884000      0.5526000      -0.7000000
H5        0.6045000      0.0652000      0.5501000       0.4350000
C8        0.2225000      0.7632000      0.3874000       0.2650000
O3        0.2595000      0.7659000      0.3777000      -0.7000000
H5        0.2633000      0.7902000      0.3712000       0.4350000
C8        0.4950000      0.5569000      0.0219000       0.2650000
O3        0.4744000      0.5236000      0.0238000      -0.7000000
H5        0.4912000      0.5044000      0.0232000       0.4350000
C8        0.8810000      0.7678000      0.3490000       0.2650000
O3        0.8759000      0.8056000      0.3471000      -0.7000000
H5        0.8664000      0.8121000      0.3244000       0.4350000
C8        0.2893000      0.2752000      0.6069000       0.2650000
O3        0.2779000      0.2455000      0.6288000      -0.7000000
H5        0.2525000      0.2490000      0.6266000       0.4350000
C8        0.9881000      0.1179000      0.1019000       0.2650000
O3        0.9519000      0.1298000      0.0989000      -0.7000000
H5        0.9432000      0.1176000      0.0784000       0.4350000
C8        0.1500000      0.8059000      0.7307000       0.2650000
O3        0.1508000      0.8391000      0.7134000      -0.7000000
H5        0.1730000      0.8518000      0.7148000       0.4350000
C8        0.0835000      0.0781000      0.6026000       0.2650000
O3        0.0789000      0.1144000      0.6123000      -0.7000000
H5        0.0543000      0.1219000      0.6118000       0.4350000
C8        0.5601000      0.0954000      0.6296000       0.2650000
O3        0.5396000      0.0954000      0.5974000      -0.7000000
H5        0.5561000      0.0892000      0.5791000       0.4350000
C8        0.9748000      0.3514000      0.4239000       0.2650000
O3        0.9402000      0.3650000      0.4342000      -0.7000000
H5        0.9202000      0.3525000      0.4239000       0.4350000
C8        0.4652000      0.3158000      0.4923000       0.2650000
O3        0.4928000      0.3425000      0.5012000      -0.7000000
H5        0.4882000      0.3455000      0.5261000       0.4350000
C8        0.3741000      0.8570000      0.8486000       0.2650000
O3        0.3741000      0.8391000      0.8137000      -0.7000000
H5        0.3504000      0.8367000      0.8053000       0.4350000
C8        0.3652000      0.8697000      0.2557000       0.2650000
O3        0.3725000      0.8434000      0.2279000      -0.7000000
H5        0.3695000      0.8194000      0.2363000       0.4350000
C8        0.9613000      0.6420000      0.6093000       0.2650000
O3        0.9318000      0.6193000      0.5996000      -0.7000000
H5        0.9127000      0.6283000      0.6139000       0.4350000
C8        0.2990000      0.7951000      0.7556000       0.2650000
O3        0.3063000      0.8145000      0.7888000      -0.7000000
H5        0.2968000      0.8007000      0.8083000       0.4350000
C8        0.1495000      0.1398000      0.8459000       0.2650000
O3        0.1868000      0.1365000      0.8510000      -0.7000000
H5        0.1968000      0.1371000      0.8275000       0.4350000
C8        0.1065000      0.0922000      0.9189000       0.2650000
O3        0.0762000      0.0681000      0.9175000      -0.7000000
H5        0.0592000      0.0743000      0.9354000       0.4350000
C8        0.8402000      0.9810000      0.0581000       0.2650000
O3        0.8597000      0.9886000      0.0254000      -0.7000000
H5        0.8732000      0.9670000      0.0227000       0.4350000
C8        0.0903000      0.2460000      0.7997000       0.2650000
O3        0.0938000      0.2695000      0.7686000      -0.7000000
H5        0.0933000      0.2544000      0.7480000       0.4350000
C8        0.7802000      0.7883000      0.2044000       0.2650000
O3        0.8061000      0.7634000      0.1871000      -0.7000000
H5        0.8118000      0.7459000      0.2046000       0.4350000
C8        0.7342000      0.2514000      0.7104000       0.2650000
O3        0.7221000      0.2803000      0.6858000      -0.7000000
H5        0.6983000      0.2741000      0.6788000       0.4350000
C8        0.0984000      0.2387000      0.6848000       0.2650000
O3        0.0779000      0.2265000      0.7142000      -0.7000000
H5        0.0581000      0.2136000      0.7042000       0.4350000
C8        0.2774000      0.6302000      0.6510000       0.2650000
O3        0.2893000      0.6369000      0.6861000      -0.7000000
H5        0.2925000      0.6150000      0.6988000       0.4350000
C8        0.2374000      0.2098000      0.8613000       0.2650000
O3        0.2695000      0.2084000      0.8402000      -0.7000000
H5        0.2874000      0.1982000      0.8553000       0.4350000
C8        0.0189000      0.9894000      0.9459000       0.2650000
O3        0.0570000      0.9946000      0.9421000      -0.7000000
H5        0.0627000      1.0151000      0.9281000       0.4350000
C8        0.3544000      0.7250000      0.8475000       0.2650000
O3        0.3487000      0.7226000      0.8086000      -0.7000000
H5        0.3620000      0.7415000      0.7980000       0.4350000
C8        0.8024000      0.4185000      0.7686000       0.2650000
O3        0.7959000      0.3901000      0.7434000      -0.7000000
H5        0.8175000      0.3771000      0.7391000       0.4350000
C8        0.9646000      0.3282000      0.0522000       0.2650000
O3        0.9835000      0.3382000      0.0211000      -0.7000000
H5        0.9648000      0.3506000      0.0089000       0.4350000
C8        0.4620000      0.4788000      0.4944000       0.2650000
O3        0.4566000      0.4461000      0.4763000      -0.7000000
H5        0.4804000      0.4396000      0.4693000       0.4350000
C8        0.2341000      0.2465000      0.1957000       0.2650000
O3        0.2444000      0.2109000      0.2076000      -0.7000000
H5        0.2363000      0.2095000      0.2319000       0.4350000
C8        0.5588000      0.5396000      0.6458000       0.2650000
O3        0.5326000      0.5693000      0.6480000      -0.7000000
H5        0.5366000      0.5853000      0.6675000       0.4350000
C8        0.7778000      0.7661000      0.5866000       0.2650000
O3        0.7510000      0.7591000      0.6137000      -0.7000000
H5        0.7496000      0.7337000      0.6158000       0.4350000
C8        0.6475000      0.6577000      0.7905000       0.2650000
O3        0.6791000      0.6794000      0.7872000      -0.7000000
H5        0.6956000      0.6734000      0.8056000       0.4350000
C8        0.3404000      0.3466000      0.3771000       0.2650000
O3        0.3441000      0.3782000      0.3558000      -0.7000000
H5        0.3504000      0.3977000      0.3712000       0.4350000
C8        0.4982000      1.0161999      0.6307000       0.2650000
O3        0.4877000      0.9905000      0.6050000      -0.7000000
H5        0.4644000      0.9813000      0.6099000       0.4350000
C8        0.8932000      0.0073000      0.4006000       0.2650000
O3        0.9218000      0.0311000      0.3887000      -0.7000000
H5        0.9173000      0.0538000      0.3996000       0.4350000
C8        0.5117000      0.5028000      0.1379000       0.2650000
O3        0.5012000      0.4761000      0.1106000      -0.7000000
H5        0.4793000      0.4842000      0.0998000       0.4350000
C8        0.8724000      0.2268000      0.3093000       0.2650000
O3        0.8513000      0.1971000      0.3249000      -0.7000000
H5        0.8372000      0.2063000      0.3444000       0.4350000
C8        0.5874000      0.3817000      0.0649000       0.2650000
O3        0.6074000      0.3971000      0.0952000      -0.7000000
H5        0.5977000      0.4206000      0.0971000       0.4350000
C8        0.8502000      0.8299000      0.6183000       0.2650000
O3        0.8762000      0.8167000      0.6442000      -0.7000000
H5        0.8721000      0.8278000      0.6666000       0.4350000
C8        0.6361000      0.1771000      0.2041000       0.2650000
O3        0.6502000      0.1936000      0.2379000      -0.7000000
H5        0.6745000      0.1887000      0.2430000       0.4350000
C8        0.6531000      0.3258000      0.8678000       0.2650000
O3        0.6239000      0.3128000      0.8491000      -0.7000000
H5        0.6177000      0.2925000      0.8635000       0.4350000
C8        0.8856000      0.6437000      0.7213000       0.2650000
O3        0.8740000      0.6734000      0.6996000      -0.7000000
H5        0.8710000      0.6934000      0.7150000       0.4350000
C8        0.7991000      0.1295000      0.2617000       0.2650000
O3        0.7924000      0.1646000      0.2752000      -0.7000000
H5        0.8151000      0.1744000      0.2817000       0.4350000
C8        0.5418000      0.5220000      0.4623000       0.2650000
O3        0.5144000      0.5423000      0.4444000      -0.7000000
H5        0.5090000      0.5626000      0.4588000       0.4350000
C8        0.5169000      0.4820000      0.5785000       0.2650000
O3        0.4996000      0.4490000      0.5850000      -0.7000000
H5        0.4750000      0.4563000      0.5858000       0.4350000
C8        0.3977000      0.0795000      0.0146000       0.2650000
O3        0.4233000      0.1049000      0.0030000      -0.7000000
H5        0.4220000      0.1262000      0.0173000       0.4350000
C8        0.7507000      0.3695000      0.1587000       0.2650000
O3        0.7897000      0.3690000      0.1619000      -0.7000000
H5        0.7970000      0.3690000      0.1865000       0.4350000
C8        0.6083000      0.4909000      0.1006000       0.2650000
O3        0.5847000      0.4607000      0.1014000      -0.7000000
H5        0.5601000      0.4671000      0.0981000       0.4350000
C8        0.9294000      0.5801000      0.4066000       0.2650000
O3        0.9400000      0.6180000      0.4085000      -0.7000000
H5        0.9581000      0.6202000      0.4260000       0.4350000
C8        0.5999000      0.9886000     -0.0046000       0.2650000
O3        0.6256000      0.9740000      0.0170000      -0.7000000
H5        0.6207000      0.9843000      0.0400000       0.4350000
C8        0.6396000      0.5342000      0.3771000       0.2650000
O3        0.6037000      0.5374000      0.3901000      -0.7000000
H5        0.5966000      0.5144000      0.3987000       0.4350000
C8        0.3428000      0.0257000      0.5280000       0.2650000
O3        0.3644000      0.0573000      0.5336000      -0.7000000
H5        0.3790000      0.0565000      0.5545000       0.4350000
C8        0.1944000      0.2138000      0.2852000       0.2650000
O3        0.2317000      0.2052000      0.2744000      -0.7000000
H5        0.2387000      0.1884000      0.2925000       0.4350000
C8        0.4247000      0.7759000      0.7642000       0.2650000
O3        0.3877000      0.7794000      0.7761000      -0.7000000
H5        0.3869000      0.8032000      0.7853000       0.4350000
C8        0.4439000      0.3839000      0.5672000       0.2650000
O3        0.4777000      0.3639000      0.5669000      -0.7000000
H5        0.4928000      0.3758000      0.5837000       0.4350000
C8        0.3466000      0.6120000      0.2417000       0.2650000
O3        0.3201000      0.6299000      0.2649000      -0.7000000
H5        0.3276000      0.6266000      0.2890000       0.4350000
C8        0.2146000      0.1106000      0.7329000       0.2650000
O3        0.2133000      0.1257000      0.7686000      -0.7000000
H5        0.2076000      0.1503000      0.7648000       0.4350000
C8        0.5755000      0.3828000      0.9519000       0.2650000
O3        0.5956000      0.4142000      0.9473000      -0.7000000
H5        0.6004000      0.4106000      0.9227000       0.4350000
C8        0.2122000      0.8234000      0.1481000       0.2650000
O3        0.1976000      0.8529000      0.1690000      -0.7000000
H5        0.1730000      0.8583000      0.1649000       0.4350000
C8        0.1362000      0.3122000      0.2219000       0.2650000
O3        0.1573000      0.3168000      0.1906000      -0.7000000
H5        0.1803000      0.3247000      0.1990000       0.4350000
C8        0.3998000     -0.0087000      0.9072000       0.2650000
O3        0.3906000      0.0046000      0.9424000      -0.7000000
H5        0.3963000      0.0294000      0.9413000       0.4350000
C8        0.1246000      0.5558000      0.0503000       0.2650000
O3        0.1025000      0.5866000      0.0633000      -0.7000000
H5        0.1173000      0.5999000      0.0792000       0.4350000
C8        0.6512000      0.3220000      0.1230000       0.2650000
O3        0.6250000      0.3390000      0.1449000      -0.7000000
H5        0.6172000      0.3593000      0.1314000       0.4350000
C8        0.4036000      0.4647000      0.3855000       0.2650000
O3        0.3841000      0.4301000      0.3925000      -0.7000000
H5        0.3933000      0.4220000      0.4150000       0.4350000
C8        0.9229000      0.9564000      0.6053000       0.2650000
O3        0.9527000      0.9581000      0.5807000      -0.7000000
H5        0.9424000      0.9602000      0.5574000       0.4350000
C8        0.0205000      0.5755000      0.0998000       0.2650000
O3        0.0316000      0.5893000      0.0657000      -0.7000000
H5        0.0570000      0.5864000      0.0657000       0.4350000
C8        0.2411000      0.8551000      0.3433000       0.2650000
O3        0.2703000      0.8375000      0.3625000      -0.7000000
H5        0.2901000      0.8537000      0.3636000       0.4350000
C8        0.3677000      0.1252000      0.3782000       0.2650000
O3        0.3336000      0.1368000      0.3631000      -0.7000000
H5        0.3398000      0.1608000      0.3568000       0.4350000
C8        0.7772000      0.1641000      0.6475000       0.2650000
O3        0.8107000      0.1627000      0.6675000      -0.7000000
H5        0.8088000      0.1554000      0.6918000       0.4350000
C8        0.8410000      0.3628000      0.6164000       0.2650000
O3        0.8345000      0.3268000      0.6312000      -0.7000000
H5        0.8094000      0.3225000      0.6310000       0.4350000
C8        0.8902000      0.5942000      0.5128000       0.2650000
O3        0.9273000      0.6010000      0.5215000      -0.7000000
H5        0.9305000      0.5991000      0.5466000       0.4350000
C8        0.8267000      0.9578000      0.9429000       0.2650000
O3        0.8137000      0.9832000      0.9170000      -0.7000000
H5        0.8105000      0.9694000      0.8956000       0.4350000
C8        0.6318000      0.2392000      0.7515000       0.2650000
O3        0.6434000      0.2222000      0.7191000      -0.7000000
H5        0.6410000      0.2392000      0.6999000       0.4350000
C8        0.4650000      0.9978000      0.0589000       0.2650000
O3        0.5028000      0.9989000      0.0533000      -0.7000000
H5        0.5101000      0.9756000      0.0603000       0.4350000
C8        0.9072000      0.3768000      0.9756000       0.2650000
O3        0.9451000      0.3831000      0.9821000      -0.7000000
H5        0.9529000      0.3987000      0.9635000       0.4350000
C8        0.2436000      0.6050000      0.2133000       0.2650000
O3        0.2084000      0.6164000      0.2025000      -0.7000000
H5        0.2006000      0.6299000      0.2228000       0.4350000
C8        0.9537000      0.0192000      0.1341000       0.2650000
O3        0.9532000      0.0038000      0.0989000      -0.7000000
H5        0.9329000      0.0154000      0.0881000       0.4350000
C8       -0.0044000      0.3925000      0.1217000       0.2650000
O3        0.0138000      0.4236000      0.1357000      -0.7000000
H5        0.0384000      0.4196000      0.1411000       0.4350000
C8        0.5872000      0.9913000      0.6342000       0.2650000
O3        0.6185000      0.9854000      0.6126000      -0.7000000
H5        0.6166000      0.9619000      0.6026000       0.4350000
C8        0.2638000      0.2963000      0.2884000       0.2650000
O3        0.2676000      0.3274000      0.2628000      -0.7000000
H5        0.2871000      0.3422000      0.2701000       0.4350000
C8        0.1435000      0.1900000      0.1314000       0.2650000
O3        0.1400000      0.1514000      0.1335000      -0.7000000
H5        0.1490000      0.1452000      0.1568000       0.4350000
C8        0.3639000      0.8316000      0.6842000       0.2650000
O3        0.3495000      0.8351000      0.6469000      -0.7000000
H5        0.3439000      0.8113000      0.6391000       0.4350000
C8        0.1317000      0.9178000      0.9121000       0.2650000
O3        0.0962000      0.9221000      0.9232000      -0.7000000
H5        0.0911000      0.9467000      0.9191000       0.4350000
C8        0.0714000     -0.0027000      0.4423000       0.2650000
O3        0.0803000      0.0254000      0.4701000      -0.7000000
H5        0.0854000      0.0097000      0.4896000       0.4350000
C8        0.7637000      0.8932000      0.2168000       0.2650000
O3        0.7318000      0.8902000      0.2395000      -0.7000000
H5        0.7375000      0.8937000      0.2641000       0.4350000
C8        0.7791000      0.5626000      0.2133000       0.2650000
O3        0.7459000      0.5810000      0.2122000      -0.7000000
H5        0.7491000      0.6061000      0.2157000       0.4350000
C8        0.5409000      0.9621000      0.5345000       0.2650000
O3        0.5172000      0.9927000      0.5331000      -0.7000000
H5        0.5080000      0.9943000      0.5569000       0.4350000
C8        0.0084000      0.1125000      0.9835000       0.2650000
O3        0.0235000      0.0833000      0.9621000      -0.7000000
H5        0.0057000      0.0760000      0.9451000       0.4350000
C8        0.6426000      0.4850000      0.4963000       0.2650000
O3        0.6304000      0.4661000      0.4663000      -0.7000000
H5        0.6177000      0.4442000      0.4707000       0.4350000
C8        0.7645000      0.8929000      0.6772000       0.2650000
O3        0.7707000      0.8607000      0.6967000      -0.7000000
H5        0.7588000      0.8399000      0.6875000       0.4350000
C8       -0.0006000      0.5412000      0.3371000       0.2650000
O3        0.0078000      0.5107000      0.3604000      -0.7000000
H5        0.0248000      0.5199000      0.3771000       0.4350000
C8        0.1279000      0.7007000      0.7450000       0.2650000
O3        0.1471000      0.6666000      0.7488000      -0.7000000
H5        0.1573000      0.6585000      0.7272000       0.4350000
C8        0.3814000      0.7596000      0.1622000       0.2650000
O3        0.3444000      0.7637000      0.1730000      -0.7000000
H5        0.3460000      0.7640000      0.1984000       0.4350000
C8        0.5023000      0.4931000      0.3395000       0.2650000
O3        0.4793000      0.5082000      0.3685000      -0.7000000
H5        0.4966000      0.5136000      0.3866000       0.4350000
C8        0.4517000      0.9121000      0.8970000       0.2650000
O3        0.4888000      0.9167000      0.8870000      -0.7000000
H5        0.4890000      0.9354000      0.8697000       0.4350000
C8        0.0965000      0.5085000      0.4269000       0.2650000
O3        0.0600000      0.5185000      0.4209000      -0.7000000
H5        0.0457000      0.4990000      0.4296000       0.4350000
C8        0.1322000      0.3547000      0.7575000       0.2650000
O3        0.1425000      0.3220000      0.7745000      -0.7000000
H5        0.1206000      0.3098000      0.7694000       0.4350000
C8        1.0146000      0.8891000      0.8702000       0.2650000
O3        0.9776000      0.8794000      0.8818000      -0.7000000
H5        0.9759000      0.8710000      0.9056000       0.4350000
C8        0.2460000      0.3641000      0.7186000       0.2650000
O3        0.2390000      0.3555000      0.6818000      -0.7000000
H5        0.2609000      0.3479000      0.6710000       0.4350000
C8        0.5431000      0.4585000      0.0014000       0.2650000
O3        0.5234000      0.4690000      0.0316000      -0.7000000
H5        0.5193000      0.4463000      0.0427000       0.4350000
C8        0.4701000      0.4923000      0.9397000       0.2650000
O3        0.4901000      0.5269000      0.9402000      -0.7000000
H5        0.4825000      0.5358000      0.9629000       0.4350000
C8        0.6445000      0.2160000      0.0971000       0.2650000
O3        0.6639000      0.2241000      0.1306000      -0.7000000
H5        0.6885000      0.2203000      0.1260000       0.4350000
C8        0.0011000      0.3931000      0.5112000       0.2650000
O3        0.0270000      0.4193000      0.5044000      -0.7000000
H5        0.0476000      0.4133000      0.5180000       0.4350000
C8        0.9694000      0.5282000      0.6058000       0.2650000
O3        0.9629000      0.4931000      0.5910000      -0.7000000
H5        0.9435000      0.4934000      0.5742000       0.4350000
C8        0.9586000      0.0827000      0.6320000       0.2650000
O3        0.9921000      0.0727000      0.6129000      -0.7000000
H5        0.9975000      0.0487000      0.6188000       0.4350000
C8        0.1376000      0.8480000      0.6156000       0.2650000
O3        0.1311000      0.8748000      0.6426000      -0.7000000
H5        0.1360000      0.8635000      0.6648000       0.4350000
C8        0.8797000      0.1122000      0.4012000       0.2650000
O3        0.9067000      0.0919000      0.4198000      -0.7000000
H5        0.9054000      0.0989000      0.4444000       0.4350000
C8        0.3725000      1.0187000      0.1043000       0.2650000
O3        0.3955000      0.9997000      0.1308000      -0.7000000
H5        0.3950000      0.9746000      0.1265000       0.4350000
C8        0.8459000      0.5977000      0.8210000       0.2650000
O3        0.8305000      0.6072000      0.8540000      -0.7000000
H5        0.8097000      0.6215000      0.8499000       0.4350000
C8        0.7415000      0.6894000      0.2206000       0.2650000
O3        0.7410000      0.6521000      0.2357000      -0.7000000
H5        0.7480000      0.6512000      0.2603000       0.4350000
C8        0.9135000      0.9159000      0.1038000       0.2650000
O3        0.8986000      0.8891000      0.0795000      -0.7000000
H5        0.8862000      0.8726000      0.0943000       0.4350000
C8        0.3447000      0.3877000      0.2598000       0.2650000
O3        0.3174000      0.3798000      0.2871000      -0.7000000
H5        0.3252000      0.3877000      0.3101000       0.4350000
C8        0.3766000      0.4898000      0.9889000       0.2650000
O3        0.3698000      0.5120000      0.9567000      -0.7000000
H5        0.3839000      0.5334000      0.9578000       0.4350000
C8        0.9508000      0.5918000     -0.0025000       0.2650000
O3        0.9646000      0.5691000      0.0275000      -0.7000000
H5        0.9854000      0.5807000      0.0365000       0.4350000
C8        0.8626000      0.4090000      0.1227000       0.2650000
O3        0.8556000      0.3728000      0.1314000      -0.7000000
H5        0.8310000      0.3712000      0.1376000       0.4350000
C8        0.2701000      0.7421000      0.1189000       0.2650000
O3        0.3066000      0.7288000      0.1171000      -0.7000000
H5        0.3203000      0.7445000      0.1319000       0.4350000
C8        0.6145000      0.8840000     -0.0111000       0.2650000
O3        0.6064000      0.9005000      0.0243000      -0.7000000
H5        0.6131000      0.9251000      0.0230000       0.4350000
Zn        0.2355000      0.5036000      0.3617000       0.3536000
He        0.2130000      0.4999000      0.3533000       0.0884000
He        0.2411000      0.4853000      0.3763000       0.0884000
He        0.2517000      0.5053000      0.3436000       0.0884000
He        0.2355000      0.5245000      0.3747000       0.0884000
Zn        0.4863000      0.2614000      0.1268000       0.3536000
He        0.4885000      0.2844000      0.1346000       0.0884000
He        0.4655000      0.2584000      0.1146000       0.0884000
He        0.4869000      0.2463000      0.1457000       0.0884000
He        0.5047000      0.2560000      0.1119000       0.0884000
Zn        0.2384000      0.0016000      0.1335000       0.3536000
He        0.2203000      0.0097000      0.1473000       0.0884000
He        0.2457000      0.0200000      0.1198000       0.0884000
He        0.2568000      0.9935000      0.1471000       0.0884000
He        0.2298000      0.9830000      0.1200000       0.0884000
Zn        0.4820000      0.2549000      0.3782000       0.3536000
He        0.4742000      0.2376000      0.3631000       0.0884000
He        0.4682000      0.2560000      0.3979000       0.0884000
He        0.4815000      0.2763000      0.3660000       0.0884000
He        0.5050000      0.2495000      0.3841000       0.0884000
Zn        0.3682000      0.2341000      0.0138000       0.3536000
He        0.3471000      0.2465000      0.0146000       0.0884000
He        0.3793000      0.2384000      0.0351000       0.0884000
He        0.3633000      0.2103000      0.0111000       0.0884000
He        0.3825000      0.2425000      0.9962000       0.0884000
Zn        0.2490000      0.1130000      0.0016000       0.3536000
He        0.2314000      0.1298000      0.0014000       0.0884000
He        0.2487000      0.1011000      0.0227000       0.0884000
He        0.2706000      0.1244000      0.9989000       0.0884000
He        0.2463000      0.0971000      0.9835000       0.0884000
Zn        0.1165000      0.2392000      0.9821000       0.3536000
He        0.1298000      0.2187000      0.9813000       0.0884000
He        0.1079000      0.2420000      0.0048000       0.0884000
He        0.1303000      0.2584000      0.9762000       0.0884000
He        0.0979000      0.2371000      0.9667000       0.0884000
Zn        0.2476000      0.3639000      0.9810000       0.3536000
He        0.2649000      0.3471000      0.9854000       0.0884000
He        0.2501000      0.3825000      0.9965000       0.0884000
He        0.2257000      0.3536000      0.9840000       0.0884000
He        0.2492000      0.3714000      0.9581000       0.0884000
Zn        0.4912000      0.3831000      0.2484000       0.3536000
He        0.4817000      0.3706000      0.2298000       0.0884000
He        0.4777000      0.4028000      0.2530000       0.0884000
He        0.4926000      0.3687000      0.2682000       0.0884000
He        0.5136000      0.3901000      0.2420000       0.0884000
Zn        0.4890000      0.1376000      0.2517000       0.3536000
He        0.4842000      0.1530000      0.2698000       0.0884000
He        0.4690000      0.1268000      0.2433000       0.0884000
He        0.4977000      0.1500000      0.2328000       0.0884000
He        0.5055000      0.1214000      0.2593000       0.0884000
Zn        0.1154000      0.4947000      0.2363000       0.3536000
He        0.1254000      0.4958000      0.2582000       0.0884000
He        0.1030000      0.4739000      0.2333000       0.0884000
He        0.1317000      0.4963000      0.2184000       0.0884000
He        0.1000000      0.5134000      0.2341000       0.0884000
Zn        0.3687000      0.4988000      0.2392000       0.3536000
He        0.3582000      0.4877000      0.2203000       0.0884000
He        0.3836000      0.4836000      0.2511000       0.0884000
He        0.3514000      0.5058000      0.2549000       0.0884000
He        0.3812000      0.5180000      0.2306000       0.0884000
Zn        0.7434000      0.9889000      0.8718000       0.3536000
He        0.7267000      0.9908000      0.8543000       0.0884000
He        0.7405000      0.9681000      0.8840000       0.0884000
He        0.7656000      0.9892000      0.8618000       0.0884000
He        0.7413000      0.0078000      0.8867000       0.0884000
Zn        0.0011000      0.7380000      0.6256000       0.3536000
He        0.9941000      0.7569000      0.6391000       0.0884000
He        0.9813000      0.7291000      0.6150000       0.0884000
He        0.0124000      0.7213000      0.6391000       0.0884000
He        0.0168000      0.7459000      0.6085000       0.0884000
Zn        0.7434000      0.5007000      0.6080000       0.3536000
He        0.7226000      0.5072000      0.6188000       0.0884000
He        0.7505000      0.5182000      0.5926000       0.0884000
He        0.7607000      0.4966000      0.6245000       0.0884000
He        0.7399000      0.4807000      0.5947000       0.0884000
Zn        0.0089000      0.7418000      0.8610000       0.3536000
He        0.0038000      0.7248000      0.8445000       0.0884000
He        0.9889000      0.7467000      0.8740000       0.0884000
He        0.0165000      0.7615000      0.8491000       0.0884000
He        0.0270000      0.7345000      0.8756000       0.0884000
Zn        0.8956000      0.7545000      0.4896000       0.3536000
He        0.8813000      0.7742000      0.4896000       0.0884000
He        0.9002000      0.7472000      0.5123000       0.0884000
He        0.8837000      0.7367000      0.4777000       0.0884000
He        0.9164000      0.7596000      0.4780000       0.0884000
Zn        0.7724000      0.6207000      0.4774000       0.3536000
He        0.7572000      0.6396000      0.4804000       0.0884000
He        0.7742000      0.6091000      0.4988000       0.0884000
He        0.7945000      0.6283000      0.4707000       0.0884000
He        0.7629000      0.6050000      0.4612000       0.0884000
Zn        0.6402000      0.7507000      0.4739000       0.3536000
He        0.6580000      0.7345000      0.4696000       0.0884000
He        0.6307000      0.7461000      0.4958000       0.0884000
He        0.6493000      0.7732000      0.4744000       0.0884000
He        0.6229000      0.7496000      0.4569000       0.0884000
Zn        0.7618000      0.8770000      0.4988000       0.3536000
He        0.7791000      0.8599000      0.5009000       0.0884000
He        0.7564000      0.8862000      0.5207000       0.0884000
He        0.7418000      0.8672000      0.4890000       0.0884000
He        0.7694000      0.8948000      0.4842000       0.0884000
Zn        0.0068000      0.8680000      0.7515000       0.3536000
He        0.0032000      0.8583000      0.7296000       0.0884000
He        0.9854000      0.8743000      0.7618000       0.0884000
He        0.0178000      0.8529000      0.7667000       0.0884000
He        0.0214000      0.8875000      0.7488000       0.0884000
Zn        0.0092000      0.6147000      0.7437000       0.3536000
He        0.0005000      0.6223000      0.7651000       0.0884000
He        0.9932000      0.5996000      0.7332000       0.0884000
He        0.0124000      0.6339000      0.7291000       0.0884000
He        0.0303000      0.6031000      0.7467000       0.0884000
Zn        0.6188000      0.0114000      0.7418000       0.3536000
He        0.6310000      0.9976000      0.7580000       0.0884000
He        0.5977000      0.0003000      0.7367000       0.0884000
He        0.6310000      0.0132000      0.7210000       0.0884000
He        0.6150000      0.0333000      0.7515000       0.0884000
Zn        0.8802000      0.9911000      0.7521000       0.3536000
He        0.8635000      0.9886000      0.7345000       0.0884000
He        0.8964000      0.9732000      0.7496000       0.0884000
He        0.8694000      0.9897000      0.7737000       0.0884000
He        0.8913000      0.0127000      0.7502000       0.0884000
Zn        0.2514000      0.9838000      0.8789000       0.3536000
He        0.2292000      0.9773000      0.8710000       0.0884000
He        0.2609000      0.9654000      0.8918000       0.0884000
He        0.2657000      0.9881000      0.8597000       0.0884000
He        0.2498000      0.0035000      0.8929000       0.0884000
Zn        0.5136000      0.7450000      0.6085000       0.3536000
He        0.5158000      0.7283000      0.6261000       0.0884000
He        0.5334000      0.7442000      0.5945000       0.0884000
He        0.5104000      0.7672000      0.6180000       0.0884000
He        0.4944000      0.7388000      0.5950000       0.0884000
Zn        0.2555000      0.4969000      0.6202000       0.3536000
He        0.2414000      0.5080000      0.6366000       0.0884000
He        0.2625000      0.5128000      0.6031000       0.0884000
He        0.2755000      0.4896000      0.6323000       0.0884000
He        0.2444000      0.4777000      0.6107000       0.0884000
Zn        0.5031000      0.7418000      0.8697000       0.3536000
He        0.5039000      0.7602000      0.8537000       0.0884000
He        0.5234000      0.7410000      0.8829000       0.0884000
He        0.5004000      0.7210000      0.8575000       0.0884000
He        0.4839000      0.7442000      0.8843000       0.0884000
Zn        0.3774000      0.7464000      0.4950000       0.3536000
He        0.3625000      0.7653000      0.4996000       0.0884000
He        0.3887000      0.7405000      0.5158000       0.0884000
He        0.3639000      0.7277000      0.4869000       0.0884000
He        0.3944000      0.7526000      0.4788000       0.0884000
Zn        0.2563000      0.6183000      0.4980000       0.3536000
He        0.2352000      0.6302000      0.4999000       0.0884000
He        0.2571000      0.6023000      0.5163000       0.0884000
He        0.2752000      0.6334000      0.4999000       0.0884000
He        0.2579000      0.6058000      0.4771000       0.0884000
Zn        0.1290000      0.7440000      0.4936000       0.3536000
He        0.1468000      0.7280000      0.4982000       0.0884000
He        0.1114000      0.7426000      0.5104000       0.0884000
He        0.1387000      0.7661000      0.4942000       0.0884000
He        0.1200000      0.7396000      0.4715000       0.0884000
Zn        0.2490000      0.8721000      0.5074000       0.3536000
He        0.2725000      0.8662000      0.5104000       0.0884000
He        0.2403000      0.8829000      0.5272000       0.0884000
He        0.2360000      0.8521000      0.5023000       0.0884000
He        0.2476000      0.8870000      0.4882000       0.0884000
Zn        0.5012000      0.8694000      0.7399000       0.3536000
He        0.5009000      0.8551000      0.7596000       0.0884000
He        0.5193000      0.8856000      0.7413000       0.0884000
He        0.5028000      0.8562000      0.7196000       0.0884000
He        0.4804000      0.8821000      0.7388000       0.0884000
Zn        0.5088000      0.6218000      0.7353000       0.3536000
He        0.5055000      0.6331000      0.7140000       0.0884000
He        0.5304000      0.6107000      0.7353000       0.0884000
He        0.5077000      0.6383000      0.7532000       0.0884000
He        0.4912000      0.6056000      0.7383000       0.0884000
Zn        0.1257000      0.0046000      0.7480000       0.3536000
He        0.1403000      0.9997000      0.7669000       0.0884000
He        0.1154000      0.9835000      0.7415000       0.0884000
He        0.1384000      0.0146000      0.7299000       0.0884000
He        0.1084000      0.0200000      0.7550000       0.0884000
Zn        0.3720000      0.9951000      0.7496000       0.3536000
He        0.3552000      0.9929000      0.7323000       0.0884000
He        0.3852000      0.9748000      0.7515000       0.0884000
He        0.3604000      0.9992000      0.7707000       0.0884000
He        0.3863000      0.0143000      0.7453000       0.0884000
Zn        0.7356000      0.4869000      0.8686000       0.3536000
He        0.7591000      0.4915000      0.8651000       0.0884000
He        0.7250000      0.5044000      0.8816000       0.0884000
He        0.7248000      0.4861000      0.8470000       0.0884000
He        0.7329000      0.4652000      0.8794000       0.0884000
Zn        0.9919000      0.2633000      0.6329000       0.3536000
He        0.9870000      0.2836000      0.6453000       0.0884000
He        0.9746000      0.2601000      0.6164000       0.0884000
He        0.9927000      0.2444000      0.6483000       0.0884000
He        0.0132000      0.2657000      0.6212000       0.0884000
Zn        0.7532000      0.0008000      0.6307000       0.3536000
He        0.7715000      0.0005000      0.6466000       0.0884000
He        0.7515000      0.9795000      0.6191000       0.0884000
He        0.7321000      0.0054000      0.6423000       0.0884000
He        0.7580000      0.0178000      0.6139000       0.0884000
Zn        0.9819000      0.2406000      0.8732000       0.3536000
He        0.9751000      0.2260000      0.8548000       0.0884000
He        0.9627000      0.2444000      0.8872000       0.0884000
He        0.9902000      0.2614000      0.8640000       0.0884000
He        0.9997000      0.2295000      0.8854000       0.0884000
Zn        0.8716000      0.2479000      0.5031000       0.3536000
He        0.8545000      0.2652000      0.5058000       0.0884000
He        0.8899000      0.2522000      0.5182000       0.0884000
He        0.8616000      0.2265000      0.5085000       0.0884000
He        0.8799000      0.2479000      0.4804000       0.0884000
Zn        0.7426000      0.1227000      0.5009000       0.3536000
He        0.7221000      0.1357000      0.5001000       0.0884000
He        0.7469000      0.1152000      0.5236000       0.0884000
He        0.7613000      0.1362000      0.4928000       0.0884000
He        0.7405000      0.1035000      0.4861000       0.0884000
Zn        0.6174000      0.2484000      0.4993000       0.3536000
He        0.6304000      0.2295000      0.5077000       0.0884000
He        0.6047000      0.2579000      0.5177000       0.0884000
He        0.6323000      0.2652000      0.4898000       0.0884000
He        0.6018000      0.2403000      0.4825000       0.0884000
Zn        0.7418000      0.3677000      0.4844000       0.3536000
He        0.7607000      0.3558000      0.4936000       0.0884000
He        0.7321000      0.3812000      0.5023000       0.0884000
He        0.7250000      0.3517000      0.4769000       0.0884000
He        0.7483000      0.3823000      0.4661000       0.0884000
Zn        0.9900000      0.3796000      0.7613000       0.3536000
He        0.9794000      0.3682000      0.7426000       0.0884000
He        0.9762000      0.3985000      0.7683000       0.0884000
He        0.9919000      0.3639000      0.7799000       0.0884000
He        0.0116000      0.3879000      0.7540000       0.0884000
Zn        0.9921000      0.1217000      0.7448000       0.3536000
He        0.9865000      0.1311000      0.7664000       0.0884000
He        0.9746000      0.1065000      0.7375000       0.0884000
He        0.9943000      0.1395000      0.7283000       0.0884000
He        0.0129000      0.1092000      0.7467000       0.0884000
Zn        0.6229000      0.4926000      0.7237000       0.3536000
He        0.6342000      0.4926000      0.7021000       0.0884000
He        0.6110000      0.5139000      0.7261000       0.0884000
He        0.6385000      0.4901000      0.7421000       0.0884000
He        0.6069000      0.4742000      0.7240000       0.0884000
Zn        0.8689000      0.5053000      0.7353000       0.3536000
He        0.8564000      0.5082000      0.7559000       0.0884000
He        0.8862000      0.5226000      0.7332000       0.0884000
He        0.8535000      0.5066000      0.7167000       0.0884000
He        0.8805000      0.4839000      0.7353000       0.0884000
Zn        0.2436000      0.4939000      0.8670000       0.3536000
He        0.2595000      0.5050000      0.8521000       0.0884000
He        0.2347000      0.5099000      0.8832000       0.0884000
He        0.2249000      0.4850000      0.8540000       0.0884000
He        0.2544000      0.4758000      0.8789000       0.0884000
Zn        0.4920000      0.2341000      0.6261000       0.3536000
He        0.4999000      0.2176000      0.6423000       0.0884000
He        0.5090000      0.2363000      0.6091000       0.0884000
He        0.4885000      0.2555000      0.6372000       0.0884000
He        0.4707000      0.2276000      0.6164000       0.0884000
Zn        0.2414000      0.9940000      0.6256000       0.3536000
He        0.2625000      0.9932000      0.6377000       0.0884000
He        0.2365000      0.9719000      0.6166000       0.0884000
He        0.2238000      0.0008000      0.6410000       0.0884000
He        0.2430000      0.0100000      0.6072000       0.0884000
Zn        0.4912000      0.2492000      0.8791000       0.3536000
He        0.4942000      0.2682000      0.8640000       0.0884000
He        0.5077000      0.2498000      0.8972000       0.0884000
He        0.4942000      0.2284000      0.8670000       0.0884000
He        0.4688000      0.2511000      0.8883000       0.0884000
Zn        0.3647000      0.2436000      0.5015000       0.3536000
He        0.3487000      0.2265000      0.4955000       0.0884000
He        0.3798000      0.2460000      0.4823000       0.0884000
He        0.3531000      0.2647000      0.5044000       0.0884000
He        0.3768000      0.2374000      0.5215000       0.0884000
Zn        0.2314000      0.1281000      0.5042000       0.3536000
He        0.2465000      0.1457000      0.4966000       0.0884000
He        0.2260000      0.1144000      0.4850000       0.0884000
He        0.2111000      0.1371000      0.5142000       0.0884000
He        0.2428000      0.1144000      0.5207000       0.0884000
Zn        0.1108000      0.2495000      0.5020000       0.3536000
He        0.1308000      0.2611000      0.4950000       0.0884000
He        0.0973000      0.2452000      0.4820000       0.0884000
He        0.1171000      0.2282000      0.5117000       0.0884000
He        0.0984000      0.2625000      0.5182000       0.0884000
Zn        0.2468000      0.3752000      0.4882000       0.3536000
He        0.2284000      0.3620000      0.4788000       0.0884000
He        0.2560000      0.3898000      0.4712000       0.0884000
He        0.2641000      0.3601000      0.4961000       0.0884000
He        0.2387000      0.3879000      0.5074000       0.0884000
Zn        0.4920000      0.3655000      0.7405000       0.3536000
He        0.4966000      0.3495000      0.7583000       0.0884000
He        0.5109000      0.3806000      0.7380000       0.0884000
He        0.4896000      0.3531000      0.7199000       0.0884000
He        0.4717000      0.3785000      0.7448000       0.0884000
Zn        0.4958000      0.1214000      0.7537000       0.3536000
He        0.5042000      0.1311000      0.7329000       0.0884000
He        0.5139000      0.1098000      0.7645000       0.0884000
He        0.4880000      0.1398000      0.7675000       0.0884000
He        0.4777000      0.1060000      0.7483000       0.0884000
Zn        0.1262000      0.4885000      0.7448000       0.3536000
He        0.1414000      0.4917000      0.7261000       0.0884000
He        0.1173000      0.5104000      0.7505000       0.0884000
He        0.1381000      0.4785000      0.7637000       0.0884000
He        0.1084000      0.4731000      0.7386000       0.0884000
Zn        0.3796000      0.4980000      0.7477000       0.3536000
He        0.3695000      0.5039000      0.7691000       0.0884000
He        0.3933000      0.5166000      0.7402000       0.0884000
He        0.3617000      0.4934000      0.7318000       0.0884000
He        0.3925000      0.4780000      0.7515000       0.0884000
Zn        0.7502000      0.0035000      0.3744000       0.3536000
He        0.7310000      0.9959000      0.3612000       0.0884000
He        0.7537000      0.9876000      0.3925000       0.0884000
He        0.7699000      0.0043000      0.3601000       0.0884000
He        0.7459000      0.0251000      0.3844000       0.0884000
Zn        0.0162000      0.7494000      0.0930000       0.3536000
He        0.0130000      0.7705000      0.1046000       0.0884000
He        0.9968000      0.7432000      0.0797000       0.0884000
He        0.0197000      0.7318000      0.1095000       0.0884000
He        0.0360000      0.7505000      0.0784000       0.0884000
Zn        0.7415000      0.4898000      0.1195000       0.3536000
He        0.7256000      0.4917000      0.1379000       0.0884000
He        0.7375000      0.5090000      0.1046000       0.0884000
He        0.7640000      0.4907000      0.1281000       0.0884000
He        0.7380000      0.4693000      0.1071000       0.0884000
Zn        0.0089000      0.7491000      0.3552000       0.3536000
He        0.0014000      0.7318000      0.3398000       0.0884000
He        0.9913000      0.7542000      0.3709000       0.0884000
He        0.0149000      0.7691000      0.3428000       0.0884000
He        0.0284000      0.7402000      0.3668000       0.0884000
Zn        0.8775000      0.7369000      0.9851000       0.3536000
He        0.8589000      0.7237000      0.9770000       0.0884000
He        0.8943000      0.7407000      0.9678000       0.0884000
He        0.8697000      0.7586000      0.9929000       0.0884000
He        0.8870000      0.7245000      0.0038000       0.0884000
Zn        0.7442000      0.6166000      0.9900000       0.3536000
He        0.7653000      0.6283000      0.9862000       0.0884000
He        0.7391000      0.6042000      0.9700000       0.0884000
He        0.7269000      0.6331000      0.9943000       0.0884000
He        0.7459000      0.6018000      0.0092000       0.0884000
Zn        0.6180000      0.7429000      0.0038000       0.3536000
He        0.6329000      0.7618000      0.0005000       0.0884000
He        0.6056000      0.7383000      0.9835000       0.0884000
He        0.6307000      0.7229000      0.0092000       0.0884000
He        0.6018000      0.7472000      0.0214000       0.0884000
Zn        0.7469000      0.8659000      0.0116000       0.3536000
He        0.7291000      0.8494000      0.0105000       0.0884000
He        0.7453000      0.8797000      0.9916000       0.0884000
He        0.7680000      0.8540000      0.0119000       0.0884000
He        0.7440000      0.8794000      0.0316000       0.0884000
Zn        0.0051000      0.8672000      0.2260000       0.3536000
He        0.0041000      0.8545000      0.2055000       0.0884000
He        0.9851000      0.8808000      0.2290000       0.0884000
He        0.0078000      0.8521000      0.2449000       0.0884000
He        0.0243000      0.8821000      0.2257000       0.0884000
Zn        0.0027000      0.6312000      0.2282000       0.3536000
He        0.9989000      0.6437000      0.2487000       0.0884000
He        0.9851000      0.6145000      0.2257000       0.0884000
He        0.0024000      0.6464000      0.2092000       0.0884000
He        0.0241000      0.6199000      0.2298000       0.0884000
Zn        0.6139000      0.0181000      0.2533000       0.3536000
He        0.6283000      0.0200000      0.2728000       0.0884000
He        0.6058000      0.9951000      0.2509000       0.0884000
He        0.6266000      0.0243000      0.2336000       0.0884000
He        0.5947000      0.0330000      0.2560000       0.0884000
Zn        0.8783000      0.9873000      0.2487000       0.3536000
He        0.8572000      0.9808000      0.2387000       0.0884000
He        0.8937000      0.9683000      0.2474000       0.0884000
He        0.8751000      0.9929000      0.2720000       0.0884000
He        0.8875000      0.0065000      0.2368000       0.0884000
Zn        0.2503000      0.0073000      0.3855000       0.3536000
He        0.2674000      0.0076000      0.3682000       0.0884000
He        0.2465000      0.0305000      0.3917000       0.0884000
He        0.2295000      0.9984000      0.3771000       0.0884000
He        0.2582000      0.9943000      0.4044000       0.0884000
Zn        0.5058000      0.7599000      0.1354000       0.3536000
He        0.5115000      0.7426000      0.1517000       0.0884000
He        0.5247000      0.7637000      0.1206000       0.0884000
He        0.4996000      0.7805000      0.1468000       0.0884000
He        0.4871000      0.7521000      0.1219000       0.0884000
Zn        0.2538000      0.4896000      0.1103000       0.3536000
He        0.2730000      0.4842000      0.1244000       0.0884000
He        0.2593000      0.5090000      0.0965000       0.0884000
He        0.2484000      0.4704000      0.0962000       0.0884000
He        0.2352000      0.4953000      0.1246000       0.0884000
Zn        0.5036000      0.7550000      0.3674000       0.3536000
He        0.5020000      0.7783000      0.3598000       0.0884000
He        0.5261000      0.7510000      0.3760000       0.0884000
He        0.4993000      0.7410000      0.3482000       0.0884000
He        0.4871000      0.7510000      0.3850000       0.0884000
Zn        0.3898000      0.7542000      0.0073000       0.3536000
He        0.3709000      0.7388000      0.0062000       0.0884000
He        0.4017000      0.7545000      0.9862000       0.0884000
He        0.3820000      0.7769000      0.0122000       0.0884000
He        0.4058000      0.7483000      0.0249000       0.0884000
Zn        0.2614000      0.6204000      0.9921000       0.3536000
He        0.2820000      0.6331000      0.9886000       0.0884000
He        0.2555000      0.6077000      0.9724000       0.0884000
He        0.2430000      0.6358000      0.9970000       0.0884000
He        0.2638000      0.6053000      0.0111000       0.0884000
Zn        0.1417000      0.7442000      0.9665000       0.3536000
He        0.1560000      0.7632000      0.9616000       0.0884000
He        0.1303000      0.7383000      0.9456000       0.0884000
He        0.1549000      0.7250000      0.9738000       0.0884000
He        0.1254000      0.7496000      0.9838000       0.0884000
Zn        0.2555000      0.8724000      0.0130000       0.3536000
He        0.2433000      0.8583000      0.9976000       0.0884000
He        0.2690000      0.8883000      0.0005000       0.0884000
He        0.2698000      0.8580000      0.0268000       0.0884000
He        0.2401000      0.8843000      0.0276000       0.0884000
Zn        0.4907000      0.8910000      0.2574000       0.3536000
He        0.4971000      0.8762000      0.2755000       0.0884000
He        0.5088000      0.9064000      0.2525000       0.0884000
He        0.4863000      0.8775000      0.2376000       0.0884000
He        0.4704000      0.9032000      0.2633000       0.0884000
Zn        0.4993000      0.6215000      0.2503000       0.3536000
He        0.5026000      0.6350000      0.2306000       0.0884000
He        0.5204000      0.6115000      0.2565000       0.0884000
He        0.4904000      0.6350000      0.2687000       0.0884000
He        0.4831000      0.6039000      0.2457000       0.0884000
Zn        0.1146000      0.9978000      0.2630000       0.3536000
He        0.1276000      0.0075000      0.2447000       0.0884000
He        0.0965000      0.0132000      0.2687000       0.0884000
He        0.1292000      0.9940000      0.2820000       0.0884000
He        0.1054000      0.9767000      0.2557000       0.0884000
Zn        0.3660000      0.0143000      0.2571000       0.3536000
He        0.3471000      0.0157000      0.2720000       0.0884000
He        0.3787000      0.0351000      0.2576000       0.0884000
He        0.3587000      0.0095000      0.2344000       0.0884000
He        0.3806000      0.9962000      0.2644000       0.0884000
Zn        0.7618000      0.4893000      0.3636000       0.3536000
He        0.7842000      0.4955000      0.3563000       0.0884000
He        0.7523000      0.5077000      0.3766000       0.0884000
He        0.7469000      0.4853000      0.3447000       0.0884000
He        0.7626000      0.4693000      0.3774000       0.0884000
Zn        0.0022000      0.2433000      0.1233000       0.3536000
He        0.0081000      0.2271000      0.1403000       0.0884000
He        0.0222000      0.2528000      0.1135000       0.0884000
He        0.9884000      0.2606000      0.1335000       0.0884000
He        0.9892000      0.2325000      0.1057000       0.0884000
Zn        0.7469000      0.9924000      0.1349000       0.3536000
He        0.7675000      0.9873000      0.1471000       0.0884000
He        0.7410000      0.9738000      0.1206000       0.0884000
He        0.7288000      0.9956000      0.1508000       0.0884000
He        0.7502000      0.0124000      0.1214000       0.0884000
Zn        0.9940000      0.2568000      0.3752000       0.3536000
He        0.9929000      0.2752000      0.3593000       0.0884000
He        0.0135000      0.2590000      0.3898000       0.0884000
He        0.9954000      0.2357000      0.3631000       0.0884000
He        0.9738000      0.2571000      0.3887000       0.0884000
Zn        0.8570000      0.2360000      0.0070000       0.3536000
He        0.8391000      0.2203000      0.0022000       0.0884000
He        0.8724000      0.2368000      0.9884000       0.0884000
He        0.8470000      0.2579000      0.0103000       0.0884000
He        0.8697000      0.2298000      0.0268000       0.0884000
Zn        0.7286000      0.1065000      0.9984000       0.3536000
He        0.7445000      0.1249000      0.0008000       0.0884000
He        0.7329000      0.0949000      0.9775000       0.0884000
He        0.7056000      0.1146000      0.9984000       0.0884000
He        0.7310000      0.0908000      0.0170000       0.0884000
Zn        0.6215000      0.2371000      0.0049000       0.3536000
He        0.6339000      0.2579000      0.0030000       0.0884000
He        0.6126000      0.2319000      0.9827000       0.0884000
He        0.6353000      0.2187000      0.0124000       0.0884000
He        0.6031000      0.2398000      0.0205000       0.0884000
Zn        0.7483000      0.3598000      0.9975000       0.3536000
He        0.7283000      0.3460000      0.9975000       0.0884000
He        0.7550000      0.3628000      0.9743000       0.0884000
He        0.7664000      0.3485000      0.0092000       0.0884000
He        0.7448000      0.3817000      0.0073000       0.0884000
Zn        0.9929000      0.3720000      0.2355000       0.3536000
He        0.9894000      0.3593000      0.2560000       0.0884000
He        0.0154000      0.3809000      0.2355000       0.0884000
He        0.9908000      0.3577000      0.2160000       0.0884000
He        0.9762000      0.3898000      0.2352000       0.0884000
Zn        0.9859000      0.1246000      0.2555000       0.3536000
He        0.9875000      0.1419000      0.2384000       0.0884000
He        0.0054000      0.1103000      0.2541000       0.0884000
He        0.9854000      0.1346000      0.2776000       0.0884000
He        0.9654000      0.1122000      0.2514000       0.0884000
Zn        0.6196000      0.4985000      0.2528000       0.3536000
He        0.6337000      0.5009000      0.2330000       0.0884000
He        0.6069000      0.5188000      0.2574000       0.0884000
He        0.6334000      0.4934000      0.2720000       0.0884000
He        0.6034000      0.4807000      0.2492000       0.0884000
Zn        0.8735000      0.5112000      0.2347000       0.3536000
He        0.8578000      0.5158000      0.2528000       0.0884000
He        0.8899000      0.5290000      0.2336000       0.0884000
He        0.8621000      0.5082000      0.2133000       0.0884000
He        0.8859000      0.4912000      0.2409000       0.0884000
H3        0.2057000      0.0484000      0.2928000       0.1381000
H3        0.1636000      0.0424000      0.2787000       0.1381000
H3        0.1717000      0.0668000      0.3239000       0.1381000
C2        0.1871000      0.9622000      0.3555000      -0.0662000
C2        0.1619000      0.9516000      0.3285000      -0.0662000
H2        0.2003000      0.9465000      0.3766000       0.1141000
H2        0.1546000      0.9243000      0.3203000       0.1141000
N1        0.1976000      0.9973000      0.3536000       0.0000000
N1        0.1546000      0.9832000      0.3101000       0.0000000
C1        0.1773000      0.0097000      0.3249000       0.4375000
C3        0.1784000      0.0454000      0.3044000      -0.4606000
Ne        0.2065000      0.0043000      0.3614000      -0.4203000
Ne        0.1457000      0.9865000      0.3006000      -0.4203000
H3        0.0273000      0.2982000      0.2295000       0.1381000
H3        0.0484000      0.3039000      0.1884000       0.1381000
H3        0.0230000      0.2611000      0.1949000       0.1381000
C2        0.9440000      0.3047000      0.1476000      -0.0662000
C2        0.9408000      0.3336000      0.1706000      -0.0662000
H2        0.9257000      0.2903000      0.1298000       0.1141000
H2        0.9221000      0.3563000      0.1719000       0.1141000
N1        0.9754000      0.2876000      0.1571000       0.0000000
N1        0.9719000      0.3358000      0.1919000       0.0000000
C1        0.9919000      0.3058000      0.1830000       0.4375000
C3        0.0249000      0.2903000      0.2009000      -0.4606000
Ne        0.9789000      0.2757000      0.1517000      -0.4203000
Ne        0.9749000      0.3455000      0.2009000      -0.4203000
H3        0.2620000      0.4980000      0.2401000       0.1381000
H3        0.2476000      0.4628000      0.2709000       0.1381000
H3        0.2884000      0.4588000      0.2436000       0.1381000
C2        0.3071000      0.5188000      0.3395000      -0.0662000
C2        0.3366000      0.5215000      0.3166000      -0.0662000
H2        0.3049000      0.5290000      0.3671000       0.1141000
H2        0.3647000      0.5288000      0.3217000       0.1141000
N1        0.2793000      0.5017000      0.3209000       0.0000000
N1        0.3263000      0.5031000      0.2849000       0.0000000
C1        0.2920000      0.4939000      0.2876000       0.4375000
C3        0.2711000      0.4771000      0.2595000      -0.4606000
Ne        0.2693000      0.4977000      0.3290000      -0.4203000
Ne        0.3339000      0.5007000      0.2741000      -0.4203000
H3        0.4328000      0.2198000      0.1941000       0.1381000
H3        0.4431000      0.1895000      0.2287000       0.1381000
H3        0.4566000      0.2333000      0.2328000       0.1381000
C2        0.5361000      0.1976000      0.1606000      -0.0662000
C2        0.5363000      0.1665000      0.1814000      -0.0662000
H2        0.5561000      0.2060000      0.1403000       0.1141000
H2        0.5564000      0.1452000      0.1833000       0.1141000
N1        0.5055000      0.2171000      0.1695000       0.0000000
N1        0.5061000      0.1687000      0.2049000       0.0000000
C1        0.4885000      0.1987000      0.1963000       0.4375000
C3        0.4547000      0.2117000      0.2125000      -0.4606000
Ne        0.5001000      0.2284000      0.1644000      -0.4203000
Ne        0.5031000      0.1598000      0.2146000      -0.4203000
H3        0.1911000      0.4236000      0.1768000       0.1381000
H3        0.2241000      0.4417000      0.2060000       0.1381000
H3        0.1736000      0.4377000      0.2160000       0.1381000
C2        0.1917000      0.5304000      0.1498000      -0.0662000
C2        0.1652000      0.5353000      0.1738000      -0.0662000
H2        0.2011000      0.5472000      0.1276000       0.1141000
H2        0.1444000      0.5561000      0.1744000       0.1141000
N1        0.2082000      0.4961000      0.1536000       0.0000000
N1        0.1622000      0.5039000      0.1952000       0.0000000
C1        0.1900000      0.4820000      0.1838000       0.4375000
C3        0.1957000      0.4447000      0.1973000      -0.4606000
Ne        0.2163000      0.4907000      0.1441000      -0.4203000
Ne        0.1519000      0.5004000      0.2033000      -0.4203000
H3        0.4339000      0.3309000      0.3217000       0.1381000
H3        0.4339000      0.2903000      0.2947000       0.1381000
H3        0.4417000      0.3349000      0.2749000       0.1381000
C2        0.5347000      0.3022000      0.3312000      -0.0662000
C2        0.5404000      0.3298000      0.3068000      -0.0662000
H2        0.5550000      0.2912000      0.3493000       0.1141000
H2        0.5647000      0.3444000      0.2990000       0.1141000
N1        0.5004000      0.2974000      0.3339000       0.0000000
N1        0.5077000      0.3439000      0.2930000       0.0000000
C1        0.4855000      0.3203000      0.3095000       0.4375000
C3        0.4466000      0.3171000      0.2985000      -0.4606000
Ne        0.4934000      0.2914000      0.3439000      -0.4203000
Ne        0.5031000      0.3541000      0.2855000      -0.4203000
H3        0.3198000      0.0681000      0.2236000       0.1381000
H3        0.2806000      0.0500000      0.2371000       0.1381000
H3        0.2839000      0.0638000      0.1895000       0.1381000
C2        0.2990000      0.9632000      0.1698000      -0.0662000
C2        0.3312000      0.9622000      0.1892000      -0.0662000
H2        0.2893000      0.9427000      0.1514000       0.1141000
H2        0.3528000      0.9421000      0.1911000       0.1141000
N1        0.2849000      0.9954000      0.1763000       0.0000000
N1        0.3347000      0.9949000      0.2071000       0.0000000
C1        0.3068000      0.0138000      0.1995000       0.4375000
C3        0.2976000      0.0516000      0.2128000      -0.4606000
Ne        0.2741000      0.9989000      0.1690000      -0.4203000
Ne        0.3431000      0.9973000      0.2176000      -0.4203000
H3        0.0381000      0.2336000      0.3130000       0.1381000
H3        0.0519000      0.1909000      0.2933000       0.1381000
H3        0.0238000      0.2195000      0.2693000       0.1381000
C2        0.9540000      0.1833000      0.3490000      -0.0662000
C2        0.9570000      0.1511000      0.3293000      -0.0662000
H2        0.9319000      0.1890000      0.3674000       0.1141000
H2        0.9411000      0.1265000      0.3293000       0.1141000
N1        0.9797000      0.2076000      0.3390000       0.0000000
N1        0.9832000      0.1579000      0.3055000       0.0000000
C1        0.9981000      0.1911000      0.3112000       0.4375000
C3        0.0295000      0.2101000      0.2971000      -0.4606000
Ne        0.9805000      0.2209000      0.3401000      -0.4203000
Ne        0.9862000      0.1484000      0.2963000      -0.4203000
H3        0.3060000      0.2122000      0.0522000       0.1381000
H3        0.2652000      0.2022000      0.0270000       0.1381000
H3        0.2817000      0.1757000      0.0646000       0.1381000
C2        0.3552000      0.1568000      0.9803000      -0.0662000
C2        0.3255000      0.1344000      0.9708000      -0.0662000
H2        0.3828000      0.1527000      0.9708000       0.1141000
H2        0.3209000      0.1103000      0.9549000       0.1141000
N1        0.3444000      0.1779000      0.0076000       0.0000000
N1        0.2974000      0.1438000      0.9927000       0.0000000
C1        0.3101000      0.1692000      0.0138000       0.4375000
C3        0.2893000      0.1906000      0.0400000      -0.4606000
Ne        0.3501000      0.1890000      0.0130000      -0.4203000
Ne        0.2849000      0.1387000      0.9941000      -0.4203000
H3        0.1649000      0.2241000      0.4674000       0.1381000
H3        0.2125000      0.2157000      0.4825000       0.1381000
H3        0.1890000      0.1857000      0.4534000       0.1381000
C2        0.1625000      0.1527000      0.5542000      -0.0662000
C2        0.1322000      0.1763000      0.5526000      -0.0662000
H2        0.1654000      0.1300000      0.5728000       0.1141000
H2        0.1084000      0.1782000      0.5696000       0.1141000
N1        0.1841000      0.1595000      0.5247000       0.0000000
N1        0.1395000      0.1984000      0.5226000       0.0000000
C1        0.1703000      0.1873000      0.5085000       0.4375000
C3        0.1855000      0.2044000      0.4763000      -0.4606000
Ne        0.1963000      0.1544000      0.5217000      -0.4203000
Ne        0.1338000      0.2106000      0.5201000      -0.4203000
H3        0.2309000      0.2795000      0.0251000       0.1381000
H3        0.1890000      0.2492000      0.0257000       0.1381000
H3        0.2206000      0.2517000      0.9905000       0.1381000
C2        0.1379000      0.3255000      0.9695000      -0.0662000
C2        0.1638000      0.3506000      0.9735000      -0.0662000
H2        0.1122000      0.3276000      0.9554000       0.1141000
H2        0.1646000      0.3779000      0.9622000       0.1141000
N1        0.1484000      0.2922000      0.9811000       0.0000000
N1        0.1927000      0.3320000      0.9900000       0.0000000
C1        0.1817000      0.2963000      0.9954000       0.4375000
C3        0.2068000      0.2682000      0.0111000      -0.4606000
Ne        0.1438000      0.2795000      0.9795000      -0.4203000
Ne        0.2041000      0.3390000      0.9922000      -0.4203000
H3        0.2874000      0.3090000      0.4436000       0.1381000
H3        0.3028000      0.2652000      0.4509000       0.1381000
H3        0.2593000      0.2776000      0.4682000       0.1381000
C2        0.3174000      0.3482000      0.5369000      -0.0662000
C2        0.3409000      0.3185000      0.5404000      -0.0662000
H2        0.3147000      0.3728000      0.5531000       0.1141000
H2        0.3647000      0.3155000      0.5574000       0.1141000
N1        0.2941000      0.3417000      0.5077000       0.0000000
N1        0.3312000      0.2922000      0.5158000       0.0000000
C1        0.3033000      0.3068000      0.4958000       0.4375000
C3        0.2871000      0.2871000      0.4636000      -0.4606000
Ne        0.2847000      0.3495000      0.5020000      -0.4203000
Ne        0.3395000      0.2822000      0.5128000      -0.4203000
H3        0.4536000      0.2793000      0.0378000       0.1381000
H3        0.4466000      0.3020000      0.0792000       0.1381000
H3        0.4104000      0.2990000      0.0489000       0.1381000
C2        0.4101000      0.2095000      0.1192000      -0.0662000
C2        0.3850000      0.2092000      0.0925000      -0.0662000
H2        0.4131000      0.1938000      0.1438000       0.1141000
H2        0.3614000      0.1917000      0.0892000       0.1141000
N1        0.4358000      0.2360000      0.1092000       0.0000000
N1        0.3917000      0.2349000      0.0679000       0.0000000
C1        0.4209000      0.2511000      0.0792000       0.4375000
C3        0.4336000      0.2833000      0.0595000      -0.4606000
Ne        0.4463000      0.2406000      0.1165000      -0.4203000
Ne        0.3869000      0.2376000      0.0557000      -0.4203000
H3        0.2847000      0.0260000      0.4423000       0.1381000
H3        0.2684000      0.0373000      0.4866000       0.1381000
H3        0.2941000      0.0689000      0.4625000       0.1381000
C2        0.2114000      0.0879000      0.3974000      -0.0662000
C2        0.2017000      0.1062000      0.4293000      -0.0662000
H2        0.1976000      0.0860000      0.3714000       0.1141000
H2        0.1809000      0.1268000      0.4317000       0.1141000
N1        0.2357000      0.0608000      0.4079000       0.0000000
N1        0.2225000      0.0930000      0.4569000       0.0000000
C1        0.2422000      0.0657000      0.4431000       0.4375000
C3        0.2733000      0.0478000      0.4593000      -0.4606000
Ne        0.2409000      0.0492000      0.4031000      -0.4203000
Ne        0.2238000      0.1000000      0.4682000      -0.4203000
H3        0.0168000      0.1819000      0.0565000       0.1381000
H3        0.0638000      0.1703000      0.0538000       0.1381000
H3        0.0378000      0.1855000      0.0143000       0.1381000
C2        0.0579000      0.2787000      0.0722000      -0.0662000
C2        0.0830000      0.2744000      0.0468000      -0.0662000
H2        0.0522000      0.3047000      0.0849000       0.1141000
H2        0.0984000      0.2960000      0.0335000       0.1141000
N1        0.0376000      0.2476000      0.0762000       0.0000000
N1        0.0827000      0.2406000      0.0351000       0.0000000
C1        0.0541000      0.2260000      0.0516000       0.4375000
C3        0.0427000      0.1887000      0.0435000      -0.4606000
Ne        0.0300000      0.2433000      0.0868000      -0.4203000
Ne        0.0898000      0.2336000      0.0262000      -0.4203000
H3        0.1800000      0.4223000      0.4174000       0.1381000
H3        0.1946000      0.4212000      0.4644000       0.1381000
H3        0.1879000      0.4636000      0.4379000       0.1381000
C2        0.2849000      0.4466000      0.3987000      -0.0662000
C2        0.2906000      0.4212000      0.4250000      -0.0662000
H2        0.3044000      0.4579000      0.3798000       0.1141000
H2        0.3158000      0.4079000      0.4320000       0.1141000
N1        0.2490000      0.4577000      0.3998000       0.0000000
N1        0.2593000      0.4123000      0.4417000       0.0000000
C1        0.2360000      0.4363000      0.4260000       0.4375000
C3        0.1971000      0.4352000      0.4382000      -0.4606000
Ne        0.2433000      0.4669000      0.3920000      -0.4203000
Ne        0.2565000      0.4039000      0.4520000      -0.4203000
H3        0.4404000      0.1871000      0.4204000       0.1381000
H3        0.4239000      0.1946000      0.4647000       0.1381000
H3        0.4666000      0.2157000      0.4536000       0.1381000
C2        0.4131000      0.2957000      0.4123000      -0.0662000
C2        0.3823000      0.2857000      0.4323000      -0.0662000
H2        0.4225000      0.3225000      0.4039000       0.1141000
H2        0.3601000      0.3006000      0.4447000       0.1141000
N1        0.4355000      0.2666000      0.4128000       0.0000000
N1        0.3893000      0.2503000      0.4461000       0.0000000
C1        0.4212000      0.2409000      0.4325000       0.4375000
C3        0.4404000      0.2068000      0.4428000      -0.4606000
Ne        0.4485000      0.2666000      0.4090000      -0.4203000
Ne        0.3860000      0.2420000      0.4561000      -0.4203000
H3        0.2044000      0.0170000      0.0473000       0.1381000
H3        0.2011000      0.0603000      0.0227000       0.1381000
H3        0.1803000      0.0535000      0.0649000       0.1381000
C2        0.2814000      0.0665000      0.1027000      -0.0662000
C2        0.2863000      0.0927000      0.0770000      -0.0662000
H2        0.2960000      0.0606000      0.1276000       0.1141000
H2        0.3047000      0.1157000      0.0743000       0.1141000
N1        0.2520000      0.0454000      0.0965000       0.0000000
N1        0.2595000      0.0876000      0.0530000       0.0000000
C1        0.2398000      0.0600000      0.0654000       0.4375000
C3        0.2046000      0.0468000      0.0489000      -0.4606000
Ne        0.2487000      0.0338000      0.1025000      -0.4203000
Ne        0.2563000      0.0946000      0.0419000      -0.4203000
H3        0.0500000      0.3101000      0.4442000       0.1381000
H3        0.0127000      0.2879000      0.4652000       0.1381000
H3        0.0549000      0.2936000      0.4866000       0.1381000
C2        0.0660000      0.2171000      0.3993000      -0.0662000
C2        0.0903000      0.2098000      0.4255000      -0.0662000
H2        0.0595000      0.2019000      0.3750000       0.1141000
H2        0.1114000      0.1895000      0.4290000       0.1141000
N1        0.0454000      0.2465000      0.4074000       0.0000000
N1        0.0852000      0.2333000      0.4528000       0.0000000
C1        0.0581000      0.2549000      0.4412000       0.4375000
C3        0.0419000      0.2866000      0.4607000      -0.4606000
Ne        0.0343000      0.2520000      0.4020000      -0.4203000
Ne        0.0916000      0.2355000      0.4644000      -0.4203000
H3        0.2895000      0.4685000      0.0176000       0.1381000
H3        0.3141000      0.4369000      0.0354000       0.1381000
H3        0.2985000      0.4715000      0.0660000       0.1381000
C2        0.2136000      0.4136000      0.0784000      -0.0662000
C2        0.2192000      0.3882000      0.0522000      -0.0662000
H2        0.1927000      0.4115000      0.0992000       0.1141000
H2        0.2084000      0.3623000      0.0441000       0.1141000
N1        0.2371000      0.4401000      0.0773000       0.0000000
N1        0.2498000      0.3982000      0.0354000       0.0000000
C1        0.2587000      0.4304000      0.0506000       0.4375000
C3        0.2906000      0.4536000      0.0433000      -0.4606000
Ne        0.2387000      0.4515000      0.0846000      -0.4203000
Ne        0.2530000      0.3952000      0.0227000      -0.4203000
H3        0.0062000      0.4436000      0.2682000       0.1381000
H3        0.0460000      0.4631000      0.2836000       0.1381000
H3        0.0257000      0.4834000      0.2455000       0.1381000
C2        0.1011000      0.4104000      0.2065000      -0.0662000
C2        0.0749000      0.3831000      0.2082000      -0.0662000
H2        0.1262000      0.4123000      0.1911000       0.1141000
H2        0.0738000      0.3555000      0.1976000       0.1141000
N1        0.0881000      0.4404000      0.2249000       0.0000000
N1        0.0468000      0.3963000      0.2290000       0.0000000
C1        0.0549000      0.4315000      0.2360000       0.4375000
C3        0.0311000      0.4571000      0.2584000      -0.4606000
Ne        0.0938000      0.4523000      0.2276000      -0.4203000
Ne        0.0338000      0.3928000      0.2298000      -0.4203000
H3        0.4304000      0.4342000      0.1952000       0.1381000
H3        0.4288000      0.4788000      0.2028000       0.1381000
H3        0.4712000      0.4515000      0.2076000       0.1381000
C2        0.4312000      0.4163000      0.3022000      -0.0662000
C2        0.4017000      0.4412000      0.3003000      -0.0662000
H2        0.4406000      0.3977000      0.3228000       0.1141000
H2        0.3804000      0.4444000      0.3203000       0.1141000
N1        0.4490000      0.4215000      0.2693000       0.0000000
N1        0.4023000      0.4588000      0.2663000       0.0000000
C1        0.4331000      0.4463000      0.2503000       0.4375000
C3        0.4423000      0.4544000      0.2138000      -0.4606000
Ne        0.4607000      0.4160000      0.2647000      -0.4203000
Ne        0.3955000      0.4701000      0.2630000      -0.4203000
H3        0.4536000      0.0614000      0.3085000       0.1381000
H3        0.4539000      0.1046000      0.3141000       0.1381000
H3        0.4125000      0.0822000      0.3231000       0.1381000
C2        0.4014000      0.0706000      0.2125000      -0.0662000
C2        0.4239000      0.1000000      0.2071000      -0.0662000
H2        0.3893000      0.0543000      0.1911000       0.1141000
H2        0.4328000      0.1171000      0.1846000       0.1141000
N1        0.4014000      0.0606000      0.2484000       0.0000000
N1        0.4369000      0.1089000      0.2422000       0.0000000
C1        0.4255000      0.0843000      0.2649000       0.4375000
C3        0.4350000      0.0841000      0.3036000      -0.4606000
Ne        0.3966000      0.0506000      0.2560000      -0.4203000
Ne        0.4466000      0.1179000      0.2433000      -0.4203000
H3        0.0049000      0.0251000      0.2157000       0.1381000
H3        0.0384000      0.0511000      0.1925000       0.1381000
H3        0.0487000      0.0084000      0.2171000       0.1381000
C2        0.0570000      0.0957000      0.2884000      -0.0662000
C2        0.0814000      0.0679000      0.2952000      -0.0662000
H2        0.0546000      0.1222000      0.3006000       0.1141000
H2        0.1025000      0.0649000      0.3155000       0.1141000
N1        0.0360000      0.0862000      0.2593000       0.0000000
N1        0.0722000      0.0406000      0.2706000       0.0000000
C1        0.0460000      0.0535000      0.2492000       0.4375000
C3        0.0333000      0.0338000      0.2165000      -0.4606000
Ne        0.0243000      0.0927000      0.2560000      -0.4203000
Ne        0.0779000      0.0281000      0.2703000      -0.4203000
H3        0.6312000      0.5404000      0.8026000       0.1381000
H3        0.6507000      0.5391000      0.8445000       0.1381000
H3        0.6739000      0.5601000      0.8034000       0.1381000
C2        0.6975000      0.4509000      0.8029000      -0.0662000
C2        0.6737000      0.4507000      0.7734000      -0.0662000
H2        0.7164000      0.4312000      0.8134000       0.1141000
H2        0.6666000      0.4333000      0.7507000       0.1141000
N1        0.6964000      0.4839000      0.8205000       0.0000000
N1        0.6561000      0.4858000      0.7737000       0.0000000
C1        0.6699000      0.5009000      0.8037000       0.4375000
C3        0.6580000      0.5380000      0.8156000      -0.4606000
Ne        0.7026000      0.4866000      0.8321000      -0.4203000
Ne        0.6485000      0.4909000      0.7637000      -0.4203000
H3        0.5782000      0.7967000      0.6796000       0.1381000
H3        0.5723000      0.8448000      0.6891000       0.1381000
H3        0.5774000      0.8261000      0.6423000       0.1381000
C2        0.4728000      0.7934000      0.6631000      -0.0662000
C2        0.4725000      0.8221000      0.6872000      -0.0662000
H2        0.4523000      0.7764000      0.6504000       0.1141000
H2        0.4517000      0.8340000      0.7042000       0.1141000
N1        0.5085000      0.7907000      0.6510000       0.0000000
N1        0.5063000      0.8367000      0.6910000       0.0000000
C1        0.5272000      0.8172000      0.6685000       0.4375000
C3        0.5669000      0.8226000      0.6702000      -0.4606000
Ne        0.5142000      0.7824000      0.6420000      -0.4203000
Ne        0.5093000      0.8470000      0.6991000      -0.4203000
H3        0.8302000      0.9262000      0.7834000       0.1381000
H3        0.7861000      0.9189000      0.8002000       0.1381000
H3        0.8259000      0.9178000      0.8261000       0.1381000
C2        0.8037000      0.0278000      0.8380000      -0.0662000
C2        0.8251000      0.0313000      0.8067000      -0.0662000
H2        0.7967000      0.0473000      0.8589000       0.1141000
H2        0.8348000      0.0559000      0.7942000       0.1141000
N1        0.7964000      0.9916000      0.8426000       0.0000000
N1        0.8310000      0.9962000      0.7942000       0.0000000
C1        0.8126000      0.9740000      0.8132000       0.4375000
C3        0.8115000      0.9337000      0.8053000      -0.4606000
Ne        0.7875000      0.9870000      0.8518000      -0.4203000
Ne        0.8375000      0.9916000      0.7832000      -0.4203000
H3        0.9583000      0.6845000      0.7288000       0.1381000
H3        0.9754000      0.7288000      0.7102000       0.1381000
H3        0.9529000      0.6985000      0.6840000       0.1381000
C2        0.0543000      0.6745000      0.6561000      -0.0662000
C2        0.0538000      0.6483000      0.6831000      -0.0662000
H2        0.0757000      0.6780000      0.6364000       0.1141000
H2        0.0708000      0.6245000      0.6875000       0.1141000
N1        0.0259000      0.6988000      0.6634000       0.0000000
N1        0.0224000      0.6526000      0.7010000       0.0000000
C1        0.0067000      0.6837000      0.6915000       0.4375000
C3        0.9721000      0.6994000      0.7069000      -0.4606000
Ne        0.0221000      0.7091000      0.6556000      -0.4203000
Ne        0.0157000      0.6458000      0.7110000      -0.4203000
H3        0.6996000      0.9494000      0.6723000       0.1381000
H3        0.6783000      0.9610000      0.7150000       0.1381000
H3        0.6518000      0.9521000      0.6756000       0.1381000
C2        0.6807000      0.0559000      0.6531000      -0.0662000
C2        0.6518000      0.0549000      0.6775000      -0.0662000
H2        0.6899000      0.0778000      0.6358000       0.1141000
H2        0.6304000      0.0740000      0.6834000       0.1141000
N1        0.6985000      0.0221000      0.6537000       0.0000000
N1        0.6496000      0.0213000      0.6902000       0.0000000
C1        0.6772000      0.0029000      0.6756000       0.4375000
C3        0.6772000      0.9640000      0.6856000      -0.4606000
Ne        0.7099000      0.0167000      0.6485000      -0.4203000
Ne        0.6402000      0.0186000      0.6996000      -0.4203000
H3        0.9721000      0.7899000      0.7737000       0.1381000
H3        0.9629000      0.8183000      0.8072000       0.1381000
H3        0.9719000      0.7707000      0.8191000       0.1381000
C2        0.0730000      0.8005000      0.8259000      -0.0662000
C2        0.0692000      0.8316000      0.8064000      -0.0662000
H2        0.0976000      0.7907000      0.8391000       0.1141000
H2        0.0908000      0.8491000      0.7967000       0.1141000
N1        0.0397000      0.7842000      0.8302000       0.0000000
N1        0.0343000      0.8316000      0.7910000       0.0000000
C1        0.0189000      0.8026000      0.8072000       0.4375000
C3        0.9794000      0.7940000      0.8021000      -0.4606000
Ne        0.0354000      0.7748000      0.8391000      -0.4203000
Ne        0.0278000      0.8389000      0.7815000      -0.4203000
H3        0.7807000      0.5547000      0.6910000       0.1381000
H3        0.7951000      0.5658000      0.6488000       0.1381000
H3        0.8280000      0.5677000      0.6810000       0.1381000
C2        0.8148000      0.4604000      0.6399000      -0.0662000
C2        0.8394000      0.4623000      0.6688000      -0.0662000
H2        0.8078000      0.4388000      0.6210000       0.1141000
H2        0.8564000      0.4404000      0.6785000       0.1141000
N1        0.7959000      0.4936000      0.6377000       0.0000000
N1        0.8394000      0.4947000      0.6831000       0.0000000
C1        0.8132000      0.5134000      0.6653000       0.4375000
C3        0.8042000      0.5518000      0.6731000      -0.4606000
Ne        0.7856000      0.4977000      0.6296000      -0.4203000
Ne        0.8472000      0.4988000      0.6934000      -0.4203000
H3        0.5728000      0.6934000      0.7897000       0.1381000
H3        0.5718000      0.6791000      0.8372000       0.1381000
H3        0.5728000      0.6496000      0.8005000       0.1381000
C2        0.4634000      0.6891000      0.8170000      -0.0662000
C2        0.4669000      0.6648000      0.7880000      -0.0662000
H2        0.4401000      0.7018000      0.8294000       0.1141000
H2        0.4466000      0.6542000      0.7696000       0.1141000
N1        0.4985000      0.6972000      0.8272000       0.0000000
N1        0.5031000      0.6583000      0.7805000       0.0000000
C1        0.5207000      0.6769000      0.8059000       0.4375000
C3        0.5607000      0.6753000      0.8099000      -0.4606000
Ne        0.5034000      0.7042000      0.8378000      -0.4203000
Ne        0.5077000      0.6507000      0.7702000      -0.4203000
H3        0.8194000      0.6804000      0.5418000       0.1381000
H3        0.8359000      0.7215000      0.5245000       0.1381000
H3        0.7924000      0.7115000      0.5147000       0.1381000
C2        0.8770000      0.6799000      0.4409000      -0.0662000
C2        0.8562000      0.6488000      0.4436000      -0.0662000
H2        0.8994000      0.6880000      0.4236000       0.1141000
H2        0.8572000      0.6253000      0.4260000       0.1141000
N1        0.8645000      0.7018000      0.4688000       0.0000000
N1        0.8280000      0.6502000      0.4688000       0.0000000
C1        0.8378000      0.6823000      0.4850000       0.4375000
C3        0.8188000      0.6980000      0.5180000      -0.4606000
Ne        0.8680000      0.7137000      0.4739000      -0.4203000
Ne        0.8191000      0.6402000      0.4704000      -0.4203000
H3        0.6942000      0.7161000      0.9527000       0.1381000
H3        0.7023000      0.7399000      0.9913000       0.1381000
H3        0.7332000      0.7045000      0.9797000       0.1381000
C2        0.6666000      0.6347000      0.0219000      -0.0662000
C2        0.6399000      0.6599000      0.0278000      -0.0662000
H2        0.6696000      0.6069000      0.0311000       0.1141000
H2        0.6145000      0.6529000      0.0405000       0.1141000
N1        0.6958000      0.6510000      0.0035000       0.0000000
N1        0.6502000      0.6923000      0.0165000       0.0000000
C1        0.6829000      0.6842000      0.9997000       0.4375000
C3        0.7042000      0.7123000      0.9805000      -0.4606000
Ne        0.7080000      0.6450000      0.0035000      -0.4203000
Ne        0.6423000      0.7031000      0.0151000      -0.4203000
H3        0.6931000      0.7905000      0.5453000       0.1381000
H3        0.7199000      0.7667000      0.5107000       0.1381000
H3        0.7359000      0.8059000      0.5358000       0.1381000
C2        0.6650000      0.8318000      0.4474000      -0.0662000
C2        0.6929000      0.8562000      0.4515000      -0.0662000
H2        0.6420000      0.8329000      0.4293000       0.1141000
H2        0.7023000      0.8805000      0.4374000       0.1141000
N1        0.6704000      0.8045000      0.4712000       0.0000000
N1        0.7150000      0.8456000      0.4782000       0.0000000
C1        0.6999000      0.8143000      0.4920000       0.4375000
C3        0.7126000      0.7929000      0.5228000      -0.4606000
Ne        0.6648000      0.7921000      0.4709000      -0.4203000
Ne        0.7253000      0.8526000      0.4831000      -0.4203000
H3        0.8091000      0.7488000      0.0257000       0.1381000
H3        0.7764000      0.7821000      0.0435000       0.1381000
H3        0.7726000      0.7626000      0.0003000       0.1381000
C2        0.8407000      0.8548000      0.9938000      -0.0662000
C2        0.8648000      0.8275000      0.9846000      -0.0662000
H2        0.8410000      0.8840000      0.9922000       0.1141000
H2        0.8926000      0.8294000      0.9757000       0.1141000
N1        0.8072000      0.8375000      0.0046000       0.0000000
N1        0.8491000      0.7934000      0.9924000       0.0000000
C1        0.8161000      0.8026000      0.0051000       0.4375000
C3        0.7924000      0.7729000      0.0203000      -0.4606000
Ne        0.7978000      0.8470000      0.0073000      -0.4203000
Ne        0.8526000      0.7805000      0.9919000      -0.4203000
H3        0.9786000      0.7475000      0.5139000       0.1381000
H3        0.9640000      0.7029000      0.5077000       0.1381000
H3        0.9965000      0.7167000      0.5453000       0.1381000
C2        0.9156000      0.7348000      0.6101000      -0.0662000
C2        0.8926000      0.7426000      0.5831000      -0.0662000
H2        0.9100000      0.7356000      0.6388000       0.1141000
H2        0.8670000      0.7559000      0.5880000       0.1141000
N1        0.9505000      0.7256000      0.5934000       0.0000000
N1        0.9105000      0.7391000      0.5509000       0.0000000
C1        0.9454000      0.7280000      0.5577000       0.4375000
C3        0.9724000      0.7223000      0.5285000      -0.4606000
Ne        0.9624000      0.7231000      0.5993000      -0.4203000
Ne        0.9035000      0.7388000      0.5393000      -0.4203000
H3        0.7888000      0.5883000      0.9162000       0.1381000
H3        0.7934000      0.5474000      0.8899000       0.1381000
H3        0.8007000      0.5491000      0.9400000       0.1381000
C2        0.6891000      0.5334000      0.9259000      -0.0662000
C2        0.6923000      0.5645000      0.9462000      -0.0662000
H2        0.6656000      0.5188000      0.9164000       0.1141000
H2        0.6704000      0.5793000      0.9589000       0.1141000
N1        0.7253000      0.5247000      0.9156000       0.0000000
N1        0.7288000      0.5764000      0.9475000       0.0000000
C1        0.7469000      0.5526000      0.9278000       0.4375000
C3        0.7856000      0.5588000      0.9164000      -0.4606000
Ne        0.7272000      0.5163000      0.9054000      -0.4203000
Ne        0.7326000      0.5885000      0.9519000      -0.4203000
H3        0.5539000      0.6972000      0.5082000       0.1381000
H3        0.5599000      0.6777000      0.5491000       0.1381000
H3        0.5972000      0.6831000      0.5182000       0.1381000
C2        0.5742000      0.7818000      0.5785000      -0.0662000
C2        0.5988000      0.7886000      0.5523000      -0.0662000
H2        0.5645000      0.8005000      0.5991000       0.1141000
H2        0.6164000      0.8121000      0.5491000       0.1141000
N1        0.5626000      0.7475000      0.5747000       0.0000000
N1        0.6047000      0.7567000      0.5315000       0.0000000
C1        0.5807000      0.7332000      0.5458000       0.4375000
C3        0.5737000      0.6967000      0.5304000      -0.4606000
Ne        0.5536000      0.7426000      0.5837000      -0.4203000
Ne        0.6137000      0.7542000      0.5215000      -0.4203000
H3        0.6945000      0.9413000      0.9816000       0.1381000
H3        0.6996000      0.9759000      0.9454000       0.1381000
H3        0.6704000      0.9367000      0.9413000       0.1381000
C2        0.7629000      0.9094000      0.8937000      -0.0662000
C2        0.7688000      0.8886000      0.9237000      -0.0662000
H2        0.7802000      0.9083000      0.8702000       0.1141000
H2        0.7886000      0.8672000      0.9289000       0.1141000
N1        0.7359000      0.9321000      0.9029000       0.0000000
N1        0.7434000      0.8981000      0.9505000       0.0000000
C1        0.7240000      0.9256000      0.9354000       0.4375000
C3        0.6961000      0.9473000      0.9527000      -0.4606000
Ne        0.7323000      0.9437000      0.8970000      -0.4203000
Ne        0.7413000      0.8937000      0.9632000      -0.4203000
H3        0.0049000      0.7329000      0.9473000       0.1381000
H3        0.9765000      0.6934000      0.9456000       0.1381000
H3        0.9700000      0.7275000      0.9783000       0.1381000
C2        0.9230000      0.7726000      0.8826000      -0.0662000
C2        0.8992000      0.7648000      0.9113000      -0.0662000
H2        0.9216000      0.7886000      0.8580000       0.1141000
H2        0.8708000      0.7718000      0.9127000       0.1141000
N1        0.9559000      0.7559000      0.8937000       0.0000000
N1        0.9151000      0.7456000      0.9381000       0.0000000
C1        0.9505000      0.7391000      0.9256000       0.4375000
C3        0.9770000      0.7229000      0.9497000      -0.4606000
Ne        0.9665000      0.7526000      0.8856000      -0.4203000
Ne        0.9119000      0.7432000      0.9508000      -0.4203000
H3        0.7096000      0.5220000      0.5309000       0.1381000
H3        0.7153000      0.5593000      0.4996000       0.1381000
H3        0.6969000      0.5669000      0.5453000       0.1381000
C2        0.8032000      0.5539000      0.5737000      -0.0662000
C2        0.8059000      0.5823000      0.5523000      -0.0662000
H2        0.8240000      0.5472000      0.5937000       0.1141000
H2        0.8264000      0.6034000      0.5518000       0.1141000
N1        0.7678000      0.5372000      0.5672000       0.0000000
N1        0.7748000      0.5847000      0.5304000       0.0000000
C1        0.7529000      0.5580000      0.5423000       0.4375000
C3        0.7156000      0.5512000      0.5282000      -0.4606000
Ne        0.7599000      0.5285000      0.5739000      -0.4203000
Ne        0.7691000      0.5945000      0.5231000      -0.4203000
H3        0.5336000      0.7918000      0.9508000       0.1381000
H3        0.5823000      0.7997000      0.9508000       0.1381000
H3        0.5628000      0.8005000      0.9094000       0.1381000
C2        0.5618000      0.6937000      0.9113000      -0.0662000
C2        0.5880000      0.6948000      0.9375000      -0.0662000
H2        0.5534000      0.6704000      0.8954000       0.1141000
H2        0.6039000      0.6737000      0.9508000       0.1141000
N1        0.5482000      0.7283000      0.9081000       0.0000000
N1        0.5912000      0.7294000      0.9510000       0.0000000
C1        0.5647000      0.7486000      0.9327000       0.4375000
C3        0.5593000      0.7878000      0.9362000      -0.4606000
Ne        0.5391000      0.7337000      0.8999000      -0.4203000
Ne        0.5985000      0.7326000      0.9619000      -0.4203000
H3        0.8072000      0.9278000      0.5342000       0.1381000
H3        0.8129000      0.9273000      0.5847000       0.1381000
H3        0.8051000      0.9670000      0.5591000       0.1381000
C2        0.7053000      0.9383000      0.5834000      -0.0662000
C2        0.7050000      0.9102000      0.5582000      -0.0662000
H2        0.6818000      0.9500000      0.5966000       0.1141000
H2        0.6823000      0.8924000      0.5534000       0.1141000
N1        0.7391000      0.9537000      0.5880000       0.0000000
N1        0.7429000      0.9056000      0.5485000       0.0000000
C1        0.7605000      0.9335000      0.5655000       0.4375000
C3        0.7988000      0.9381000      0.5609000      -0.4606000
Ne        0.7437000      0.9616000      0.5983000      -0.4203000
Ne        0.7491000      0.8986000      0.5391000      -0.4203000
H3        0.5591000      0.9373000      0.6680000       0.1381000
H3        0.5923000      0.9062000      0.6840000       0.1381000
H3        0.5474000      0.8926000      0.6831000       0.1381000
C2        0.5682000      0.9583000      0.7780000      -0.0662000
C2        0.5491000      0.9273000      0.7872000      -0.0662000
H2        0.5774000      0.9794000      0.7964000       0.1141000
H2        0.5434000      0.9140000      0.8126000       0.1141000
N1        0.5739000      0.9616000      0.7415000       0.0000000
N1        0.5469000      0.9083000      0.7553000       0.0000000
C1        0.5607000      0.9286000      0.7277000       0.4375000
C3        0.5645000      0.9164000      0.6885000      -0.4606000
Ne        0.5834000      0.9702000      0.7369000      -0.4203000
Ne        0.5436000      0.8954000      0.7537000      -0.4203000
H3        0.9491000      0.9056000      0.6894000       0.1381000
H3        0.9400000      0.9524000      0.6875000       0.1381000
H3        0.9840000      0.9367000      0.7018000       0.1381000
C2        0.9437000      0.9048000      0.7964000      -0.0662000
C2        0.9164000      0.9300000      0.7953000      -0.0662000
H2        0.9516000      0.8862000      0.8178000       0.1141000
H2        0.8972000      0.9367000      0.8167000       0.1141000
N1        0.9608000      0.9018000      0.7632000       0.0000000
N1        0.9183000      0.9440000      0.7596000       0.0000000
C1        0.9446000      0.9245000      0.7421000       0.4375000
C3        0.9548000      0.9316000      0.7031000      -0.4606000
Ne        0.9705000      0.8932000      0.7599000      -0.4203000
Ne        0.9118000      0.9537000      0.7526000      -0.4203000
H3        0.9327000      0.5223000      0.7883000       0.1381000
H3        0.9719000      0.5474000      0.7902000       0.1381000
H3        0.9316000      0.5726000      0.7910000       0.1381000
C2        0.9216000      0.5572000      0.6867000      -0.0662000
C2        0.9543000      0.5734000      0.6858000      -0.0662000
H2        0.9024000      0.5536000      0.6648000       0.1141000
H2        0.9651000      0.5855000      0.6615000       0.1141000
N1        0.9135000      0.5453000      0.7207000       0.0000000
N1        0.9697000      0.5742000      0.7210000       0.0000000
C1        0.9440000      0.5555000      0.7399000       0.4375000
C3        0.9443000      0.5482000      0.7791000      -0.4606000
Ne        0.9054000      0.5363000      0.7269000      -0.4203000
Ne        0.9800000      0.5812000      0.7259000      -0.4203000
H3        0.5144000      0.5418000      0.7656000       0.1381000
H3        0.5247000      0.5217000      0.7229000       0.1381000
H3        0.5496000      0.5115000      0.7656000       0.1381000
C2        0.5964000      0.6085000      0.7299000      -0.0662000
C2        0.6210000      0.5815000      0.7280000      -0.0662000
H2        0.5974000      0.6380000      0.7294000       0.1141000
H2        0.6502000      0.5799000      0.7288000       0.1141000
N1        0.5615000      0.5939000      0.7367000       0.0000000
N1        0.6020000      0.5504000      0.7345000       0.0000000
C1        0.5666000      0.5574000      0.7402000       0.4375000
C3        0.5363000      0.5318000      0.7483000      -0.4606000
Ne        0.5499000      0.6004000      0.7364000      -0.4203000
Ne        0.6069000      0.5380000      0.7375000      -0.4203000
H3        0.1833000      0.5399000      0.7764000       0.1381000
H3        0.2141000      0.5385000      0.8164000       0.1381000
H3        0.2241000      0.5139000      0.7769000       0.1381000
C2        0.1719000      0.4452000      0.8426000      -0.0662000
C2        0.1514000      0.4404000      0.8126000      -0.0662000
H2        0.1746000      0.4298000      0.8675000       0.1141000
H2        0.1314000      0.4206000      0.8040000       0.1141000
N1        0.1965000      0.4728000      0.8370000       0.0000000
N1        0.1592000      0.4682000      0.7905000       0.0000000
C1        0.1855000      0.4898000      0.8067000       0.4375000
C3        0.2017000      0.5239000      0.7937000      -0.4606000
Ne        0.2068000      0.4769000      0.8448000      -0.4203000
Ne        0.1527000      0.4701000      0.7786000      -0.4203000
H3        0.0689000      0.8072000      0.6512000       0.1381000
H3        0.0622000      0.7751000      0.6867000       0.1381000
H3        0.0741000      0.8202000      0.6967000       0.1381000
C2        0.9605000      0.8010000      0.6718000      -0.0662000
C2        0.9646000      0.8291000      0.6958000      -0.0662000
H2        0.9351000      0.7894000      0.6623000       0.1141000
H2        0.9446000      0.8486000      0.7053000       0.1141000
N1        0.9941000      0.7867000      0.6623000       0.0000000
N1        0.0014000      0.8359000      0.7007000       0.0000000
C1        0.0170000      0.8075000      0.6804000       0.4375000
C3        0.0576000      0.8034000      0.6785000      -0.4606000
Ne        0.9959000      0.7759000      0.6545000      -0.4203000
Ne        0.0043000      0.8464000      0.7086000      -0.4203000
H3        0.2649000      0.9459000      0.8021000       0.1381000
H3        0.3041000      0.9410000      0.7759000       0.1381000
H3        0.2755000      0.9754000      0.7637000       0.1381000
C2        0.3217000      0.0251000      0.8494000      -0.0662000
C2        0.3477000      0.0270000      0.8229000      -0.0662000
H2        0.3152000      0.0413000      0.8732000       0.1141000
H2        0.3720000      0.0438000      0.8210000       0.1141000
N1        0.2982000      0.9978000      0.8421000       0.0000000
N1        0.3371000      0.0043000      0.7953000       0.0000000
C1        0.3060000      0.9875000      0.8094000       0.4375000
C3        0.2860000      0.9616000      0.7880000      -0.4606000
Ne        0.2879000      0.9935000      0.8499000      -0.4203000
Ne        0.3455000      0.0011000      0.7853000      -0.4203000
H3        0.4566000      0.7199000      0.6767000       0.1381000
H3        0.4474000      0.6710000      0.6848000       0.1381000
H3        0.4709000      0.6950000      0.7169000       0.1381000
C2        0.5528000      0.6791000      0.6407000      -0.0662000
C2        0.5542000      0.6518000      0.6648000      -0.0662000
H2        0.5709000      0.6883000      0.6193000       0.1141000
H2        0.5745000      0.6310000      0.6685000       0.1141000
N1        0.5199000      0.6969000      0.6445000       0.0000000
N1        0.5215000      0.6529000      0.6856000       0.0000000
C1        0.5028000      0.6807000      0.6718000       0.4375000
C3        0.4661000      0.6940000      0.6875000      -0.4606000
Ne        0.5177000      0.7080000      0.6372000      -0.4203000
Ne        0.5169000      0.6464000      0.6967000      -0.4203000
H3        0.1992000      0.9586000      0.6745000       0.1381000
H3        0.2211000      0.9708000      0.7150000       0.1381000
H3        0.1717000      0.9602000      0.7131000       0.1381000
C2        0.1822000      0.0576000      0.6556000      -0.0662000
C2        0.1590000      0.0586000      0.6831000      -0.0662000
H2        0.1876000      0.0746000      0.6323000       0.1141000
H2        0.1392000      0.0800000      0.6877000       0.1141000
N1        0.2019000      0.0254000      0.6615000       0.0000000
N1        0.1590000      0.0297000      0.7053000       0.0000000
C1        0.1879000      0.0108000      0.6918000       0.4375000
C3        0.1955000      0.9729000      0.7004000      -0.4606000
Ne        0.2111000      0.0197000      0.6531000      -0.4203000
Ne        0.1503000      0.0265000      0.7150000      -0.4203000
H3        0.5007000      0.7629000      0.7537000       0.1381000
H3        0.5415000      0.7607000      0.7783000       0.1381000
H3        0.5358000      0.7961000      0.7442000       0.1381000
C2        0.5031000      0.8226000      0.8499000      -0.0662000
C2        0.5023000      0.8499000      0.8267000      -0.0662000
H2        0.5015000      0.8232000      0.8794000       0.1141000
H2        0.4969000      0.8786000      0.8310000       0.1141000
N1        0.5093000      0.7918000      0.8299000       0.0000000
N1        0.5069000      0.8399000      0.7918000       0.0000000
C1        0.5115000      0.8048000      0.7942000       0.4375000
C3        0.5226000      0.7796000      0.7651000      -0.4606000
Ne        0.5093000      0.7794000      0.8351000      -0.4203000
Ne        0.5036000      0.8456000      0.7799000      -0.4203000
H3        0.3352000      0.5637000      0.6694000       0.1381000
H3        0.3195000      0.5496000      0.7129000       0.1381000
H3        0.2890000      0.5612000      0.6742000       0.1381000
C2        0.3149000      0.4493000      0.6650000      -0.0662000
C2        0.3401000      0.4550000      0.6921000      -0.0662000
H2        0.3076000      0.4236000      0.6526000       0.1141000
H2        0.3582000      0.4355000      0.7048000       0.1141000
N1        0.3014000      0.4853000      0.6577000       0.0000000
N1        0.3444000      0.4920000      0.6996000       0.0000000
C1        0.3193000      0.5090000      0.6788000       0.4375000
C3        0.3141000      0.5480000      0.6834000      -0.4606000
Ne        0.2930000      0.4874000      0.6475000      -0.4203000
Ne        0.3528000      0.4953000      0.7096000      -0.4203000
H3        0.0573000      0.6648000      0.7596000       0.1381000
H3        0.0427000      0.7107000      0.7578000       0.1381000
H3        0.0654000      0.6975000      0.7959000       0.1381000
C2        0.9619000      0.6923000      0.8216000      -0.0662000
C2        0.9578000      0.6577000      0.8056000      -0.0662000
H2        0.9459000      0.7064000      0.8418000       0.1141000
H2        0.9354000      0.6391000      0.8083000       0.1141000
N1        0.9946000      0.7034000      0.8137000       0.0000000
N1        0.9889000      0.6488000      0.7872000       0.0000000
C1        0.0100000      0.6791000      0.7926000       0.4375000
C3        0.0462000      0.6872000      0.7756000      -0.4606000
Ne        0.0022000      0.7140000      0.8180000      -0.4203000
Ne        0.9932000      0.6380000      0.7802000      -0.4203000
H3        0.2790000      0.7031000      0.5328000       0.1381000
H3        0.3133000      0.7359000      0.5312000       0.1381000
H3        0.2830000      0.7377000      0.4969000       0.1381000
C2        0.3609000      0.6610000      0.4661000      -0.0662000
C2        0.3287000      0.6410000      0.4652000      -0.0662000
H2        0.3860000      0.6585000      0.4512000       0.1141000
H2        0.3249000      0.6126000      0.4593000       0.1141000
N1        0.3512000      0.6945000      0.4809000       0.0000000
N1        0.3022000      0.6583000      0.4847000       0.0000000
C1        0.3171000      0.6902000      0.4926000       0.4375000
C3        0.2968000      0.7180000      0.5142000      -0.4606000
Ne        0.3593000      0.7053000      0.4823000      -0.4203000
Ne        0.2901000      0.6531000      0.4874000      -0.4203000
H3        0.2517000      0.7004000      0.9459000       0.1381000
H3        0.2103000      0.6834000      0.9208000       0.1381000
H3        0.2146000      0.7245000      0.9427000       0.1381000
C2        0.1868000      0.6537000      0.0262000      -0.0662000
C2        0.1606000      0.6791000      0.0175000      -0.0662000
H2        0.1830000      0.6356000      0.0489000       0.1141000
H2        0.1346000      0.6850000      0.0300000       0.1141000
N1        0.2133000      0.6526000      0.9989000       0.0000000
N1        0.1727000      0.6985000      0.9878000       0.0000000
C1        0.2030000      0.6807000      0.9773000       0.4375000
C3        0.2222000      0.6958000      0.9451000      -0.4606000
Ne        0.2244000      0.6450000      0.9978000      -0.4203000
Ne        0.1649000      0.7075000      0.9813000      -0.4203000
H3        0.2238000      0.7956000      0.5523000       0.1381000
H3        0.2028000      0.7548000      0.5391000       0.1381000
H3        0.2433000      0.7718000      0.5155000       0.1381000
C2        0.1595000      0.8132000      0.4609000      -0.0662000
C2        0.1852000      0.8394000      0.4598000      -0.0662000
H2        0.1362000      0.8083000      0.4439000       0.1141000
H2        0.1819000      0.8656000      0.4469000       0.1141000
N1        0.1687000      0.7886000      0.4869000       0.0000000
N1        0.2103000      0.8334000      0.4901000       0.0000000
C1        0.1984000      0.8005000      0.5023000       0.4375000
C3        0.2174000      0.7786000      0.5288000      -0.4606000
Ne        0.1619000      0.7769000      0.4882000      -0.4203000
Ne        0.2187000      0.8424000      0.4958000      -0.4203000
H3        0.2955000      0.7813000      0.9597000       0.1381000
H3        0.3012000      0.8299000      0.9581000       0.1381000
H3        0.3390000      0.8007000      0.9497000       0.1381000
C2        0.3112000      0.8297000      0.0600000      -0.0662000
C2        0.3441000      0.8126000      0.0592000      -0.0662000
H2        0.2944000      0.8380000      0.0827000       0.1141000
H2        0.3663000      0.8143000      0.0786000       0.1141000
N1        0.2949000      0.8261000      0.0257000       0.0000000
N1        0.3512000      0.7994000      0.0230000       0.0000000
C1        0.3198000      0.8083000      0.0054000       0.4375000
C3        0.3139000      0.8040000      0.9654000      -0.4606000
Ne        0.2825000      0.8286000      0.0205000      -0.4203000
Ne        0.3612000      0.7921000      0.0175000      -0.4203000
H3        0.4412000      0.7942000      0.5080000       0.1381000
H3        0.4831000      0.7861000      0.5269000       0.1381000
H3        0.4498000      0.8075000      0.5539000       0.1381000
C2        0.4439000      0.7034000      0.5847000      -0.0662000
C2        0.4123000      0.7040000      0.5650000      -0.0662000
H2        0.4547000      0.6885000      0.6077000       0.1141000
H2        0.3871000      0.6885000      0.5655000       0.1141000
N1        0.4647000      0.7340000      0.5761000       0.0000000
N1        0.4123000      0.7304000      0.5409000       0.0000000
C1        0.4444000      0.7491000      0.5488000       0.4375000
C3        0.4539000      0.7861000      0.5336000      -0.4606000
Ne        0.4750000      0.7386000      0.5834000      -0.4203000
Ne        0.4025000      0.7342000      0.5323000      -0.4203000
H3        0.3095000      0.5493000      0.9413000       0.1381000
H3        0.2860000      0.5104000      0.9327000       0.1381000
H3        0.2741000      0.5312000      0.9740000       0.1381000
C2        0.2038000      0.5704000      0.9027000      -0.0662000
C2        0.2092000      0.5961000      0.9291000      -0.0662000
H2        0.1833000      0.5728000      0.8818000       0.1141000
H2        0.1917000      0.6180000      0.9375000       0.1141000
N1        0.2303000      0.5436000      0.9035000       0.0000000
N1        0.2392000      0.5869000      0.9502000       0.0000000
C1        0.2520000      0.5574000      0.9313000       0.4375000
C3        0.2828000      0.5369000      0.9459000      -0.4606000
Ne        0.2317000      0.5320000      0.8967000      -0.4203000
Ne        0.2444000      0.5950000      0.9597000      -0.4203000
H3        0.0887000      0.6853000      0.5401000       0.1381000
H3        0.0433000      0.6831000      0.5372000       0.1381000
H3        0.0635000      0.6802000      0.5812000       0.1381000
C2        0.0533000      0.7891000      0.5728000      -0.0662000
C2        0.0795000      0.7883000      0.5453000      -0.0662000
H2        0.0395000      0.8110000      0.5866000       0.1141000
H2        0.0881000      0.8129000      0.5318000       0.1141000
N1        0.0468000      0.7550000      0.5804000       0.0000000
N1        0.0892000      0.7529000      0.5388000       0.0000000
C1        0.0679000      0.7334000      0.5601000       0.4375000
C3        0.0643000      0.6945000      0.5550000      -0.4606000
Ne        0.0378000      0.7494000      0.5888000      -0.4203000
Ne        0.0968000      0.7513000      0.5277000      -0.4203000
H3        0.2019000      0.9408000      0.9321000       0.1381000
H3        0.2033000      0.9116000      0.9700000       0.1381000
H3        0.2103000      0.9581000      0.9773000       0.1381000
C2        0.3085000      0.9354000      0.9294000      -0.0662000
C2        0.3106000      0.9145000      0.9608000      -0.0662000
H2        0.3320000      0.9383000      0.9121000       0.1141000
H2        0.3341000      0.9021000      0.9732000       0.1141000
N1        0.2725000      0.9435000      0.9221000       0.0000000
N1        0.2760000      0.9124000      0.9727000       0.0000000
C1        0.2549000      0.9313000      0.9516000       0.4375000
C3        0.2157000      0.9359000      0.9581000      -0.4606000
Ne        0.2671000      0.9500000      0.9113000      -0.4203000
Ne        0.2717000      0.9059000      0.9838000      -0.4203000
H3        0.4574000      0.7026000      0.9929000       0.1381000
H3        0.4953000      0.7380000      0.9862000       0.1381000
H3        0.4920000      0.7004000      0.9581000       0.1381000
C2        0.4398000      0.7694000      0.9018000      -0.0662000
C2        0.4160000      0.7772000      0.9281000      -0.0662000
H2        0.4388000      0.7767000      0.8732000       0.1141000
H2        0.3912000      0.7929000      0.9270000       0.1141000
N1        0.4631000      0.7434000      0.9137000       0.0000000
N1        0.4236000      0.7578000      0.9600000       0.0000000
C1        0.4534000      0.7391000      0.9489000       0.4375000
C3        0.4755000      0.7183000      0.9754000      -0.4606000
Ne        0.4728000      0.7375000      0.9064000      -0.4203000
Ne        0.4152000      0.7564000      0.9705000      -0.4203000
H3        0.2041000      0.5339000      0.5888000       0.1381000
H3        0.1922000      0.5507000      0.5407000       0.1381000
H3        0.1944000      0.5793000      0.5788000       0.1381000
C2        0.3028000      0.5518000      0.5788000      -0.0662000
C2        0.3006000      0.5772000      0.5512000      -0.0662000
H2        0.3268000      0.5436000      0.5937000       0.1141000
H2        0.3209000      0.5901000      0.5342000       0.1141000
N1        0.2701000      0.5396000      0.5855000       0.0000000
N1        0.2647000      0.5804000      0.5409000       0.0000000
C1        0.2460000      0.5564000      0.5620000       0.4375000
C3        0.2055000      0.5542000      0.5672000      -0.4606000
Ne        0.2666000      0.5290000      0.5931000      -0.4203000
Ne        0.2598000      0.5893000      0.5320000      -0.4203000
H3        0.0808000      0.8115000      0.9189000       0.1381000
H3        0.0408000      0.7972000      0.9040000       0.1381000
H3        0.0522000      0.7915000      0.9505000       0.1381000
C2        0.0757000      0.6985000      0.8921000      -0.0662000
C2        0.1103000      0.7034000      0.9054000      -0.0662000
H2        0.0614000      0.6745000      0.8835000       0.1141000
H2        0.1333000      0.6853000      0.9083000       0.1141000
N1        0.0565000      0.7302000      0.8943000       0.0000000
N1        0.1111000      0.7407000      0.9154000       0.0000000
C1        0.0773000      0.7545000      0.9083000       0.4375000
C3        0.0624000      0.7886000      0.9227000      -0.4606000
Ne        0.0433000      0.7313000      0.8921000      -0.4203000
Ne        0.1198000      0.7459000      0.9243000      -0.4203000
H3        0.2822000      0.9583000      0.5366000       0.1381000
H3        0.3058000      0.9316000      0.5666000       0.1381000
H3        0.2912000      0.9713000      0.5845000       0.1381000
C2        0.1960000      0.9208000      0.6010000      -0.0662000
C2        0.1992000      0.8991000      0.5715000      -0.0662000
H2        0.1730000      0.9273000      0.6180000       0.1141000
H2        0.1790000      0.8797000      0.5634000       0.1141000
N1        0.2265000      0.9413000      0.6015000       0.0000000
N1        0.2319000      0.9051000      0.5536000       0.0000000
C1        0.2482000      0.9316000      0.5742000       0.4375000
C3        0.2822000      0.9502000      0.5653000      -0.4606000
Ne        0.2306000      0.9521000      0.6083000      -0.4203000
Ne        0.2368000      0.8978000      0.5434000      -0.4203000
H3        0.0135000      0.9613000      0.7888000       0.1381000
H3        0.0400000      0.9343000      0.8151000       0.1381000
H3        0.0589000      0.9759000      0.8026000       0.1381000
C2        0.0919000      0.9348000      0.7094000      -0.0662000
C2        0.0670000      0.9067000      0.7121000      -0.0662000
H2        0.1144000      0.9389000      0.6907000       0.1141000
H2        0.0638000      0.8818000      0.6967000       0.1141000
N1        0.0846000      0.9594000      0.7375000       0.0000000
N1        0.0449000      0.9121000      0.7407000       0.0000000
C1        0.0560000      0.9421000      0.7561000       0.4375000
C3        0.0422000      0.9535000      0.7924000      -0.4606000
Ne        0.0914000      0.9705000      0.7413000      -0.4203000
Ne        0.0335000      0.9056000      0.7432000      -0.4203000
H3        0.4542000      0.9778000      0.7037000       0.1381000
H3        0.4885000      0.9648000      0.7383000       0.1381000
H3        0.4820000      0.9397000      0.7004000       0.1381000
C2        0.4220000      0.8835000      0.7621000      -0.0662000
C2        0.3971000      0.9102000      0.7688000      -0.0662000
H2        0.4212000      0.8551000      0.7691000       0.1141000
H2        0.3709000      0.9083000      0.7818000       0.1141000
N1        0.4504000      0.8991000      0.7453000       0.0000000
N1        0.4098000      0.9421000      0.7564000       0.0000000
C1        0.4431000      0.9329000      0.7410000       0.4375000
C3        0.4669000      0.9562000      0.7199000      -0.4606000
Ne        0.4623000      0.8926000      0.7448000      -0.4203000
Ne        0.4050000      0.9546000      0.7591000      -0.4203000
H3        0.4155000      0.5407000      0.7959000       0.1381000
H3        0.4612000      0.5607000      0.8053000       0.1381000
H3        0.4233000      0.5888000      0.8040000       0.1381000
C2        0.4260000      0.5580000      0.6964000      -0.0662000
C2        0.4523000      0.5837000      0.6994000      -0.0662000
H2        0.4133000      0.5496000      0.6712000       0.1141000
H2        0.4669000      0.5969000      0.6775000       0.1141000
N1        0.4171000      0.5450000      0.7310000       0.0000000
N1        0.4609000      0.5877000      0.7359000       0.0000000
C1        0.4377000      0.5650000      0.7534000       0.4375000
C3        0.4342000      0.5634000      0.7932000      -0.4606000
Ne        0.4066000      0.5372000      0.7337000      -0.4203000
Ne        0.4704000      0.5953000      0.7418000      -0.4203000
H3        0.0470000      0.5134000      0.7218000       0.1381000
H3        0.0373000      0.5593000      0.6996000       0.1381000
H3        0.0773000      0.5318000      0.6945000       0.1381000
C2        0.0830000      0.5928000      0.7907000      -0.0662000
C2        0.1062000      0.5637000      0.7924000      -0.0662000
H2        0.0762000      0.6131000      0.8110000       0.1141000
H2        0.1281000      0.5569000      0.8105000       0.1141000
N1        0.0608000      0.5885000      0.7602000       0.0000000
N1        0.0998000      0.5407000      0.7640000       0.0000000
C1        0.0716000      0.5577000      0.7450000       0.4375000
C3        0.0560000      0.5404000      0.7134000      -0.4606000
Ne        0.0495000      0.5950000      0.7569000      -0.4203000
Ne        0.1087000      0.5307000      0.7613000      -0.4203000
H3        0.7286000      0.0324000      0.7872000       0.1381000
H3        0.6953000      0.0314000      0.7526000       0.1381000
H3        0.6918000      0.0597000      0.7942000       0.1381000
C2        0.6731000      0.9605000      0.8407000      -0.0662000
C2        0.6466000      0.9578000      0.8134000      -0.0662000
H2        0.6729000      0.9430000      0.8643000       0.1141000
H2        0.6261000      0.9384000      0.8051000       0.1141000
N1        0.6956000      0.9889000      0.8345000       0.0000000
N1        0.6539000      0.9854000      0.7897000       0.0000000
C1        0.6840000      0.0030000      0.8026000       0.4375000
C3        0.6991000      0.0335000      0.7821000      -0.4606000
Ne        0.7069000      0.9916000      0.8413000      -0.4203000
Ne        0.6469000      0.9897000      0.7788000      -0.4203000
H3        0.5128000      0.2725000      0.7310000       0.1381000
H3        0.5474000      0.2987000      0.7131000       0.1381000
H3        0.5339000      0.2579000      0.6904000       0.1381000
C2        0.4574000      0.3098000      0.6429000      -0.0662000
C2        0.4612000      0.3420000      0.6618000      -0.0662000
H2        0.4393000      0.3014000      0.6212000       0.1141000
H2        0.4474000      0.3677000      0.6588000       0.1141000
N1        0.4823000      0.2849000      0.6548000       0.0000000
N1        0.4844000      0.3333000      0.6904000       0.0000000
C1        0.4971000      0.2995000      0.6834000       0.4375000
C3        0.5239000      0.2822000      0.7050000      -0.4606000
Ne        0.4825000      0.2720000      0.6510000      -0.4203000
Ne        0.4888000      0.3425000      0.6996000      -0.4203000
H3        0.7599000      0.5509000      0.7721000       0.1381000
H3        0.7442000      0.5061000      0.7651000       0.1381000
H3        0.7807000      0.5231000      0.7372000       0.1381000
C2        0.8153000      0.5007000      0.8453000      -0.0662000
C2        0.8426000      0.5050000      0.8234000      -0.0662000
H2        0.8140000      0.4934000      0.8740000       0.1141000
H2        0.8718000      0.5053000      0.8283000       0.1141000
N1        0.7815000      0.5063000      0.8289000       0.0000000
N1        0.8299000      0.5115000      0.7883000       0.0000000
C1        0.7932000      0.5123000      0.7945000       0.4375000
C3        0.7683000      0.5236000      0.7645000      -0.4606000
Ne        0.7694000      0.5047000      0.8345000      -0.4203000
Ne        0.8343000      0.5117000      0.7753000      -0.4203000
H3        0.9540000      0.2003000      0.7477000       0.1381000
H3        0.9856000      0.2368000      0.7445000       0.1381000
H3        0.9489000      0.2336000      0.7126000       0.1381000
C2        0.0224000      0.1892000      0.6523000      -0.0662000
C2        0.0267000      0.1614000      0.6769000      -0.0662000
H2        0.0321000      0.1911000      0.6247000       0.1141000
H2        0.0400000      0.1354000      0.6734000       0.1141000
N1        0.9970000      0.2144000      0.6680000       0.0000000
N1        0.0070000      0.1665000      0.7080000       0.0000000
C1        0.9892000      0.1990000      0.7015000       0.4375000
C3        0.9686000      0.2179000      0.7286000      -0.4606000
Ne        0.9935000      0.2260000      0.6623000      -0.4203000
Ne        0.0029000      0.1565000      0.7164000      -0.4203000
H3        0.7207000      0.5469000      0.6894000       0.1381000
H3        0.6961000      0.5212000      0.7186000       0.1381000
H3        0.7302000      0.5020000      0.6964000       0.1381000
C2        0.6607000      0.4988000      0.6107000      -0.0662000
C2        0.6393000      0.4817000      0.6350000      -0.0662000
H2        0.6575000      0.5017000      0.5818000       0.1141000
H2        0.6172000      0.4631000      0.6299000       0.1141000
N1        0.6899000      0.5144000      0.6283000       0.0000000
N1        0.6539000      0.4880000      0.6696000       0.0000000
C1        0.6826000      0.5074000      0.6626000       0.4375000
C3        0.7072000      0.5204000      0.6910000      -0.4606000
Ne        0.7015000      0.5155000      0.6212000      -0.4203000
Ne        0.6483000      0.4858000      0.6818000      -0.4203000
H3        0.9370000      0.2733000      0.8153000       0.1381000
H3        0.9510000      0.2979000      0.7742000       0.1381000
H3        0.9308000      0.3225000      0.8134000       0.1381000
C2        0.0359000      0.3052000      0.8378000      -0.0662000
C2        0.0367000      0.3328000      0.8115000      -0.0662000
H2        0.0554000      0.2963000      0.8578000       0.1141000
H2        0.0576000      0.3514000      0.8018000       0.1141000
N1        0.0027000      0.2882000      0.8391000       0.0000000
N1        1.0000000      0.3358000      0.8013000       0.0000000
C1        0.9827000      0.3095000      0.8175000       0.4375000
C3        0.9464000      0.2990000      0.8037000      -0.4606000
Ne        0.9951000      0.2798000      0.8467000      -0.4203000
Ne        0.9940000      0.3428000      0.7913000      -0.4203000
H3        0.7713000      0.9994000      0.7353000       0.1381000
H3        0.7910000      0.9559000      0.7429000       0.1381000
H3        0.7518000      0.9637000      0.7096000       0.1381000
C2        0.8378000      0.9978000      0.6493000      -0.0662000
C2        0.8607000      0.9873000      0.6756000      -0.0662000
H2        0.8424000      0.0046000      0.6212000       0.1141000
H2        0.8899000      0.9875000      0.6742000       0.1141000
N1        0.8021000      0.9943000      0.6634000       0.0000000
N1        0.8413000      0.9797000      0.7061000       0.0000000
C1        0.8070000      0.9829000      0.6980000       0.4375000
C3        0.7769000      0.9729000      0.7229000      -0.4606000
Ne        0.7897000      0.9962000      0.6585000      -0.4203000
Ne        0.8451000      0.9781000      0.7188000      -0.4203000
H3        0.5588000      0.2090000      0.8188000       0.1381000
H3        0.5520000      0.1946000      0.7737000       0.1381000
H3        0.5307000      0.2374000      0.7934000       0.1381000
C2        0.4555000      0.1846000      0.8386000      -0.0662000
C2        0.4539000      0.1636000      0.8072000      -0.0662000
H2        0.4388000      0.1892000      0.8624000       0.1141000
H2        0.4344000      0.1438000      0.7975000       0.1141000
N1        0.4885000      0.2030000      0.8380000       0.0000000
N1        0.4828000      0.1709000      0.7856000       0.0000000
C1        0.5039000      0.1914000      0.8078000       0.4375000
C3        0.5393000      0.2090000      0.7961000      -0.4606000
Ne        0.4931000      0.2130000      0.8459000      -0.4203000
Ne        0.4858000      0.1636000      0.7745000      -0.4203000
H3        0.7602000      0.2009000      0.5431000       0.1381000
H3        0.7972000      0.2325000      0.5534000       0.1381000
H3        0.7715000      0.2387000      0.5163000       0.1381000
C2        0.8507000      0.1654000      0.4866000      -0.0662000
C2        0.8210000      0.1435000      0.4817000      -0.0662000
H2        0.8794000      0.1633000      0.4807000       0.1141000
H2        0.8226000      0.1173000      0.4688000       0.1141000
N1        0.8418000      0.1965000      0.5055000       0.0000000
N1        0.7907000      0.1598000      0.4955000       0.0000000
C1        0.8053000      0.1914000      0.5112000       0.4375000
C3        0.7832000      0.2165000      0.5326000      -0.4606000
Ne        0.8491000      0.2079000      0.5080000      -0.4203000
Ne        0.7799000      0.1519000      0.4969000      -0.4203000
H3        0.7199000      0.1898000      0.9743000       0.1381000
H3        0.6980000      0.1608000      0.9454000       0.1381000
H3        0.6794000      0.2046000      0.9516000       0.1381000
C2        0.6483000      0.1249000      0.0311000      -0.0662000
C2        0.6269000      0.1557000      0.0319000      -0.0662000
H2        0.6450000      0.0995000      0.0457000       0.1141000
H2        0.6010000      0.1581000      0.0454000       0.1141000
N1        0.6767000      0.1322000      0.0105000       0.0000000
N1        0.6426000      0.1825000      0.0132000       0.0000000
C1        0.6715000      0.1665000      0.9973000       0.4375000
C3        0.6923000      0.1819000      0.9659000      -0.4606000
Ne        0.6875000      0.1252000      0.0062000      -0.4203000
Ne        0.6420000      0.1960000      0.0138000      -0.4203000
H3        0.6796000      0.2736000      0.5350000       0.1381000
H3        0.7199000      0.2698000      0.5134000       0.1381000
H3        0.7129000      0.3114000      0.5372000       0.1381000
C2        0.6456000      0.3049000      0.4385000      -0.0662000
C2        0.6699000      0.3339000      0.4325000      -0.0662000
H2        0.6272000      0.2941000      0.4182000       0.1141000
H2        0.6734000      0.3555000      0.4128000       0.1141000
N1        0.6556000      0.2879000      0.4723000       0.0000000
N1        0.6923000      0.3344000      0.4639000       0.0000000
C1        0.6823000      0.3068000      0.4877000       0.4375000
C3        0.6996000      0.2903000      0.5207000      -0.4606000
Ne        0.6488000      0.2787000      0.4793000      -0.4203000
Ne        0.7026000      0.3436000      0.4644000      -0.4203000
H3        0.7734000      0.3101000      0.9602000       0.1381000
H3        0.8140000      0.2884000      0.9432000       0.1381000
H3        0.7807000      0.2647000      0.9670000       0.1381000
C2        0.8156000      0.3406000      0.0470000      -0.0662000
C2        0.8434000      0.3176000      0.0489000      -0.0662000
H2        0.8070000      0.3617000      0.0657000       0.1141000
H2        0.8656000      0.3198000      0.0684000       0.1141000
N1        0.7951000      0.3317000      0.0175000       0.0000000
N1        0.8424000      0.2941000      0.0186000       0.0000000
C1        0.8115000      0.3030000      0.0013000       0.4375000
C3        0.7951000      0.2906000      0.9662000      -0.4606000
Ne        0.7853000      0.3393000      0.0124000      -0.4203000
Ne        0.8486000      0.2833000      0.0132000      -0.4203000
H3        0.9235000      0.3220000      0.5682000       0.1381000
H3        0.9481000      0.3147000      0.5245000       0.1381000
H3        0.9673000      0.3158000      0.5709000       0.1381000
C2        0.9427000      0.2155000      0.5861000      -0.0662000
C2        0.9205000      0.2095000      0.5564000      -0.0662000
H2        0.9508000      0.1941000      0.6045000       0.1141000
H2        0.9018000      0.1879000      0.5491000       0.1141000
N1        0.9546000      0.2501000      0.5866000       0.0000000
N1        0.9162000      0.2433000      0.5415000       0.0000000
C1        0.9381000      0.2684000      0.5591000       0.4375000
C3        0.9448000      0.3076000      0.5531000      -0.4606000
Ne        0.9616000      0.2538000      0.5974000      -0.4203000
Ne        0.9075000      0.2476000      0.5320000      -0.4203000
H3        0.7767000      0.0378000      0.9797000       0.1381000
H3        0.7594000      0.9962000      0.9624000       0.1381000
H3        0.7323000      0.0238000      0.9913000       0.1381000
C2        0.7286000      0.0681000      0.8845000      -0.0662000
C2        0.7256000      0.0976000      0.9072000      -0.0662000
H2        0.7267000      0.0679000      0.8551000       0.1141000
H2        0.7180000      0.1246000      0.8986000       0.1141000
N1        0.7350000      0.0368000      0.9043000       0.0000000
N1        0.7326000      0.0819000      0.9408000       0.0000000
C1        0.7383000      0.0473000      0.9381000       0.4375000
C3        0.7523000      0.0243000      0.9692000      -0.4606000
Ne        0.7383000      0.0251000      0.8981000      -0.4203000
Ne        0.7299000      0.0879000      0.9527000      -0.4203000
H3        0.5491000      0.1917000      0.5274000       0.1381000
H3        0.5345000      0.1873000      0.5726000       0.1381000
H3        0.5815000      0.1809000      0.5628000       0.1381000
C2        0.5491000      0.2874000      0.5891000      -0.0662000
C2        0.5750000      0.2930000      0.5631000      -0.0662000
H2        0.5363000      0.3071000      0.6069000       0.1141000
H2        0.5877000      0.3176000      0.5536000       0.1141000
N1        0.5393000      0.2511000      0.5885000       0.0000000
N1        0.5837000      0.2595000      0.5491000       0.0000000
C1        0.5596000      0.2352000      0.5620000       0.4375000
C3        0.5572000      0.1965000      0.5555000      -0.4606000
Ne        0.5299000      0.2444000      0.5953000      -0.4203000
Ne        0.5915000      0.2584000      0.5382000      -0.4203000
H3        0.7883000      0.4728000      0.9491000       0.1381000
H3        0.7386000      0.4731000      0.9583000       0.1381000
H3        0.7688000      0.4509000      0.9867000       0.1381000
C2        0.7591000      0.4017000      0.8783000      -0.0662000
C2        0.7550000      0.3777000      0.9064000      -0.0662000
H2        0.7588000      0.4004000      0.8491000       0.1141000
H2        0.7567000      0.3485000      0.9037000       0.1141000
N1        0.7594000      0.4352000      0.8967000       0.0000000
N1        0.7583000      0.3933000      0.9408000       0.0000000
C1        0.7602000      0.4285000      0.9327000       0.4375000
C3        0.7642000      0.4577000      0.9581000      -0.4606000
Ne        0.7599000      0.4469000      0.8899000      -0.4203000
Ne        0.7588000      0.3882000      0.9535000      -0.4203000
H3        0.9216000      0.1936000      0.9683000       0.1381000
H3        0.9519000      0.1890000      0.9310000       0.1381000
H3        0.9048000      0.1749000      0.9259000       0.1381000
C2        0.9210000      0.2879000      0.9110000      -0.0662000
C2        0.8913000      0.2876000      0.9324000      -0.0662000
H2        0.9316000      0.3085000      0.8932000       0.1141000
H2        0.8745000      0.3103000      0.9408000       0.1141000
N1        0.9386000      0.2530000      0.9110000       0.0000000
N1        0.8886000      0.2517000      0.9443000       0.0000000
C1        0.9151000      0.2336000      0.9305000       0.4375000
C3        0.9235000      0.1944000      0.9386000      -0.4606000
Ne        0.9478000      0.2482000      0.9027000      -0.4203000
Ne        0.8781000      0.2490000      0.9524000      -0.4203000
H3        0.7037000      0.0273000      0.5753000       0.1381000
H3        0.7194000      0.0184000      0.5301000       0.1381000
H3        0.6958000      0.0597000      0.5409000       0.1381000
C2        0.7886000      0.0789000      0.5988000      -0.0662000
C2        0.7783000      0.1079000      0.5782000      -0.0662000
H2        0.8110000      0.0779000      0.6177000       0.1141000
H2        0.7848000      0.1365000      0.5810000       0.1141000
N1        0.7696000      0.0489000      0.5904000       0.0000000
N1        0.7502000      0.0957000      0.5574000       0.0000000
C1        0.7467000      0.0597000      0.5639000       0.4375000
C3        0.7153000      0.0395000      0.5507000      -0.4606000
Ne        0.7707000      0.0360000      0.5937000      -0.4203000
Ne        0.7434000      0.1025000      0.5477000      -0.4203000
H3        0.5258000      0.3041000      0.9621000       0.1381000
H3        0.5047000      0.2682000      0.9832000       0.1381000
H3        0.5474000      0.2868000      0.0005000       0.1381000
C2        0.5691000      0.2336000      0.8991000      -0.0662000
C2        0.5945000      0.2249000      0.9240000      -0.0662000
H2        0.5666000      0.2271000      0.8705000       0.1141000
H2        0.6223000      0.2160000      0.9205000       0.1141000
N1        0.5415000      0.2517000      0.9156000       0.0000000
N1        0.5820000      0.2398000      0.9575000       0.0000000
C1        0.5509000      0.2579000      0.9502000       0.4375000
C3        0.5318000      0.2787000      0.9765000      -0.4606000
Ne        0.5282000      0.2522000      0.9121000      -0.4203000
Ne        0.5858000      0.2371000      0.9702000      -0.4203000
H3        0.7921000      0.4336000      0.5144000       0.1381000
H3        0.7929000      0.4685000      0.5482000       0.1381000
H3        0.7634000      0.4750000      0.5117000       0.1381000
C2        0.7004000      0.4239000      0.5807000      -0.0662000
C2        0.7031000      0.3974000      0.5547000      -0.0662000
H2        0.6785000      0.4279000      0.5999000       0.1141000
H2        0.6880000      0.3725000      0.5509000       0.1141000
N1        0.7286000      0.4488000      0.5766000       0.0000000
N1        0.7315000      0.4060000      0.5299000       0.0000000
C1        0.7467000      0.4363000      0.5477000       0.4375000
C3        0.7759000      0.4539000      0.5288000      -0.4606000
Ne        0.7332000      0.4588000      0.5847000      -0.4203000
Ne        0.7348000      0.3971000      0.5204000      -0.4203000
H3        0.5496000      0.4285000      0.7959000       0.1381000
H3        0.5910000      0.4077000      0.7840000       0.1381000
H3        0.5896000      0.4571000      0.7867000       0.1381000
C2        0.5620000      0.4412000      0.6850000      -0.0662000
C2        0.5393000      0.4128000      0.6912000      -0.0662000
H2        0.5650000      0.4574000      0.6607000       0.1141000
H2        0.5255000      0.3966000      0.6710000       0.1141000
N1        0.5758000      0.4531000      0.7164000       0.0000000
N1        0.5393000      0.4058000      0.7269000       0.0000000
C1        0.5618000      0.4304000      0.7421000       0.4375000
C3        0.5745000      0.4323000      0.7799000      -0.4606000
Ne        0.5828000      0.4644000      0.7188000      -0.4203000
Ne        0.5301000      0.3990000      0.7340000      -0.4203000
H3        0.9337000      0.4417000      0.6840000       0.1381000
H3        0.9429000      0.4823000      0.7002000       0.1381000
H3        0.9765000      0.4444000      0.7031000       0.1381000
C2        0.9189000      0.4217000      0.7932000      -0.0662000
C2        0.8908000      0.4415000      0.7813000      -0.0662000
H2        0.9235000      0.4052000      0.8172000       0.1141000
H2        0.8656000      0.4490000      0.7948000       0.1141000
N1        0.9473000      0.4223000      0.7667000       0.0000000
N1        0.9010000      0.4561000      0.7483000       0.0000000
C1        0.9332000      0.4434000      0.7413000       0.4375000
C3        0.9483000      0.4536000      0.7069000      -0.4606000
Ne        0.9586000      0.4150000      0.7651000      -0.4203000
Ne        0.8937000      0.4644000      0.7407000      -0.4203000
H3        0.9738000      0.0579000      0.7926000       0.1381000
H3        0.9486000      0.0176000      0.7959000       0.1381000
H3        0.9886000      0.0219000      0.7683000       0.1381000
C2        0.8916000      0.0681000      0.7183000      -0.0662000
C2        0.9151000      0.0971000      0.7145000      -0.0662000
H2        0.8637000      0.0641000      0.7099000       0.1141000
H2        0.9116000      0.1219000      0.6991000       0.1141000
N1        0.9075000      0.0424000      0.7388000       0.0000000
N1        0.9456000      0.0868000      0.7340000       0.0000000
C1        0.9400000      0.0541000      0.7494000       0.4375000
C3        0.9632000      0.0351000      0.7767000      -0.4606000
Ne        0.9018000      0.0311000      0.7434000      -0.4203000
Ne        0.9559000      0.0954000      0.7361000      -0.4203000
H3        0.5407000      0.0706000      0.7086000       0.1381000
H3        0.5609000      0.0273000      0.7183000       0.1381000
H3        0.5147000      0.0341000      0.7296000       0.1381000
C2        0.5615000      0.0973000      0.8110000      -0.0662000
C2        0.5920000      0.0743000      0.8051000      -0.0662000
H2        0.5564000      0.1187000      0.8305000       0.1141000
H2        0.6156000      0.0684000      0.8218000       0.1141000
N1        0.5388000      0.0914000      0.7815000       0.0000000
N1        0.5874000      0.0541000      0.7732000       0.0000000
C1        0.5542000      0.0638000      0.7615000       0.4375000
C3        0.5412000      0.0476000      0.7275000      -0.4606000
Ne        0.5290000      0.0995000      0.7769000      -0.4203000
Ne        0.5961000      0.0454000      0.7672000      -0.4203000
H3        0.2192000      0.0435000      0.8372000       0.1381000
H3        0.2325000      0.0303000      0.7956000       0.1381000
H3        0.1941000      0.0587000      0.7975000       0.1381000
C2        0.1738000      0.9481000      0.8383000      -0.0662000
C2        0.1487000      0.9586000      0.8121000      -0.0662000
H2        0.1795000      0.9235000      0.8532000       0.1141000
H2        0.1254000      0.9462000      0.7991000       0.1141000
N1        0.1982000      0.9757000      0.8413000       0.0000000
N1        0.1587000      0.9922000      0.7997000       0.0000000
C1        0.1871000      0.0038000      0.8186000       0.4375000
C3        0.2076000      0.0360000      0.8110000      -0.4606000
Ne        0.2090000      0.9757000      0.8494000      -0.4203000
Ne        0.1549000      0.9986000      0.7883000      -0.4203000
H3        0.0203000      0.2730000      0.7083000       0.1381000
H3        0.0357000      0.3117000      0.7318000       0.1381000
H3        0.0465000      0.3085000      0.6853000       0.1381000
C2        0.9421000      0.3301000      0.6612000      -0.0662000
C2        0.9462000      0.3582000      0.6856000      -0.0662000
H2        0.9213000      0.3201000      0.6434000       0.1141000
H2        0.9251000      0.3774000      0.6926000       0.1141000
N1        0.9705000      0.3055000      0.6658000       0.0000000
N1        0.9762000      0.3512000      0.7072000       0.0000000
C1        0.9903000      0.3198000      0.6953000       0.4375000
C3        0.0254000      0.3022000      0.7056000      -0.4606000
Ne        0.9754000      0.2971000      0.6566000      -0.4203000
Ne        0.9795000      0.3574000      0.7188000      -0.4203000
H3        0.2641000      0.4550000      0.7948000       0.1381000
H3        0.3066000      0.4436000      0.7740000       0.1381000
H3        0.2801000      0.4747000      0.7526000       0.1381000
C2        0.3066000      0.5404000      0.8434000      -0.0662000
C2        0.3395000      0.5388000      0.8240000      -0.0662000
H2        0.3017000      0.5566000      0.8675000       0.1141000
H2        0.3604000      0.5593000      0.8253000       0.1141000
N1        0.2863000      0.5123000      0.8286000       0.0000000
N1        0.3379000      0.5128000      0.7951000       0.0000000
C1        0.3047000      0.4971000      0.8007000       0.4375000
C3        0.2876000      0.4661000      0.7799000      -0.4606000
Ne        0.2749000      0.5082000      0.8348000      -0.4203000
Ne        0.3463000      0.5112000      0.7848000      -0.4203000
H3        0.4482000      0.2003000      0.6842000       0.1381000
H3        0.4415000      0.1525000      0.6718000       0.1381000
H3        0.4466000      0.1598000      0.7145000       0.1381000
C2        0.5493000      0.1865000      0.6702000      -0.0662000
C2        0.5523000      0.1587000      0.6942000      -0.0662000
H2        0.5715000      0.1995000      0.6558000       0.1141000
H2        0.5774000      0.1471000      0.7040000       0.1141000
N1        0.5134000      0.1927000      0.6642000       0.0000000
N1        0.5177000      0.1481000      0.7053000       0.0000000
C1        0.4955000      0.1698000      0.6867000       0.4375000
C3        0.4561000      0.1719000      0.6891000      -0.4606000
Ne        0.5063000      0.2009000      0.6558000      -0.4203000
Ne        0.5142000      0.1392000      0.7150000      -0.4203000
H3        0.2092000      0.4461000      0.7261000       0.1381000
H3        0.1687000      0.4339000      0.7018000       0.1381000
H3        0.2125000      0.4323000      0.6785000       0.1381000
C2        0.1936000      0.5345000      0.6569000      -0.0662000
C2        0.1644000      0.5366000      0.6810000      -0.0662000
H2        0.2044000      0.5558000      0.6396000       0.1141000
H2        0.1457000      0.5591000      0.6845000       0.1141000
N1        0.2117000      0.5020000      0.6621000       0.0000000
N1        0.1617000      0.5047000      0.6996000       0.0000000
C1        0.1906000      0.4844000      0.6864000       0.4375000
C3        0.1960000      0.4458000      0.6994000      -0.4606000
Ne        0.2214000      0.4977000      0.6537000      -0.4203000
Ne        0.1538000      0.4990000      0.7091000      -0.4203000
H3        0.4304000      0.2747000      0.8164000       0.1381000
H3        0.4642000      0.2520000      0.7937000       0.1381000
H3        0.4444000      0.2879000      0.7694000       0.1381000
C2        0.5261000      0.3193000      0.8407000      -0.0662000
C2        0.5255000      0.3395000      0.8091000      -0.0662000
H2        0.5447000      0.3220000      0.8635000       0.1141000
H2        0.5436000      0.3595000      0.7978000       0.1141000
N1        0.4999000      0.2949000      0.8394000       0.0000000
N1        0.4961000      0.3309000      0.7910000       0.0000000
C1        0.4823000      0.3022000      0.8078000       0.4375000
C3        0.4523000      0.2793000      0.7967000      -0.4606000
Ne        0.4971000      0.2847000      0.8478000      -0.4203000
Ne        0.4926000      0.3347000      0.7783000      -0.4203000
H3        0.3214000      0.0660000      0.6785000       0.1381000
H3        0.2949000      0.0565000      0.7196000       0.1381000
H3        0.2763000      0.0519000      0.6739000       0.1381000
C2        0.3122000      0.9573000      0.6604000      -0.0662000
C2        0.3366000      0.9565000      0.6875000      -0.0662000
H2        0.3033000      0.9351000      0.6431000       0.1141000
H2        0.3593000      0.9386000      0.6934000       0.1141000
N1        0.2922000      0.9895000      0.6596000       0.0000000
N1        0.3358000      0.9900000      0.7023000       0.0000000
C1        0.3093000      0.0089000      0.6861000       0.4375000
C3        0.3003000      0.0492000      0.6912000      -0.4606000
Ne        0.2825000      0.9932000      0.6512000      -0.4203000
Ne        0.3425000      0.9930000      0.7137000      -0.4203000
H3        0.0295000      0.2098000      0.8256000       0.1381000
H3        0.0451000      0.1663000      0.8270000       0.1381000
H3        0.0360000      0.1836000      0.7810000       0.1381000
C2        0.9346000      0.1782000      0.8340000      -0.0662000
C2        0.9394000      0.1471000      0.8159000      -0.0662000
H2        0.9108000      0.1857000      0.8497000       0.1141000
H2        0.9221000      0.1252000      0.8067000       0.1141000
N1        0.9676000      0.1963000      0.8351000       0.0000000
N1        0.9749000      0.1481000      0.8032000       0.0000000
C1        0.9911000      0.1787000      0.8129000       0.4375000
C3        0.0289000      0.1846000      0.8099000      -0.4606000
Ne        0.9724000      0.2071000      0.8413000      -0.4203000
Ne        0.9795000      0.1403000      0.7929000      -0.4203000
H3        0.2957000      0.2141000      0.5515000       0.1381000
H3        0.2695000      0.1733000      0.5553000       0.1381000
H3        0.3195000      0.1776000      0.5572000       0.1381000
C2        0.3195000      0.1884000      0.4525000      -0.0662000
C2        0.2876000      0.1690000      0.4504000      -0.0662000
H2        0.3376000      0.1982000      0.4317000       0.1141000
H2        0.2774000      0.1600000      0.4244000       0.1141000
N1        0.3255000      0.1982000      0.4871000       0.0000000
N1        0.2736000      0.1652000      0.4842000       0.0000000
C1        0.2974000      0.1825000      0.5039000       0.4375000
C3        0.2941000      0.1855000      0.5434000      -0.4606000
Ne        0.3333000      0.2071000      0.4934000      -0.4203000
Ne        0.2633000      0.1590000      0.4904000      -0.4203000
H3        0.1990000      0.2152000      0.9443000       0.1381000
H3        0.2325000      0.1798000      0.9505000       0.1381000
H3        0.1911000      0.1714000      0.9235000       0.1381000
C2        0.1700000      0.1403000      0.0284000      -0.0662000
C2        0.1468000      0.1706000      0.0262000      -0.0662000
H2        0.1733000      0.1208000      0.0503000       0.1141000
H2        0.1238000      0.1790000      0.0427000       0.1141000
N1        0.1938000      0.1433000      0.9984000       0.0000000
N1        0.1565000      0.1903000      0.9959000       0.0000000
C1        0.1830000      0.1738000      0.9792000       0.4375000
C3        0.2036000      0.1857000      0.9464000      -0.4606000
Ne        0.2049000      0.1368000      0.9948000      -0.4203000
Ne        0.1490000      0.2009000      0.9924000      -0.4203000
H3        0.1817000      0.2655000      0.5350000       0.1381000
H3        0.2163000      0.2993000      0.5412000       0.1381000
H3        0.1711000      0.3117000      0.5523000       0.1381000
C2        0.1498000      0.3141000      0.4496000      -0.0662000
C2        0.1803000      0.3358000      0.4477000      -0.0662000
H2        0.1311000      0.3082000      0.4274000       0.1141000
H2        0.1884000      0.3571000      0.4293000       0.1141000
N1        0.1492000      0.2949000      0.4809000       0.0000000
N1        0.1990000      0.3336000      0.4817000       0.0000000
C1        0.1787000      0.3074000      0.4980000       0.4375000
C3        0.1876000      0.2947000      0.5342000      -0.4606000
Ne        0.1414000      0.2849000      0.4853000      -0.4203000
Ne        0.2103000      0.3404000      0.4831000      -0.4203000
H3        0.2782000      0.2557000      0.9391000       0.1381000
H3        0.2730000      0.3041000      0.9300000       0.1381000
H3        0.3168000      0.2860000      0.9297000       0.1381000
C2        0.2968000      0.3198000      0.0308000      -0.0662000
C2        0.3174000      0.2901000      0.0370000      -0.0662000
H2        0.2901000      0.3406000      0.0505000       0.1141000
H2        0.3341000      0.2847000      0.0605000       0.1141000
N1        0.2839000      0.3206000      0.9954000       0.0000000
N1        0.3174000      0.2703000      0.0046000       0.0000000
C1        0.2955000      0.2901000      0.9813000       0.4375000
C3        0.2898000      0.2828000      0.9424000      -0.4606000
Ne        0.2766000      0.3304000      0.9894000      -0.4203000
Ne        0.3252000      0.2595000      0.0035000      -0.4203000
H3        0.4834000      0.2465000      0.5391000       0.1381000
H3        0.4504000      0.2409000      0.5047000       0.1381000
H3        0.4661000      0.2030000      0.5245000       0.1381000
C2        0.4069000      0.2230000      0.6131000      -0.0662000
C2        0.3798000      0.2249000      0.5874000      -0.0662000
H2        0.4055000      0.2246000      0.6426000       0.1141000
H2        0.3509000      0.2214000      0.5907000       0.1141000
N1        0.4371000      0.2279000      0.5950000       0.0000000
N1        0.3950000      0.2268000      0.5526000       0.0000000
C1        0.4304000      0.2290000      0.5593000       0.4375000
C3        0.4590000      0.2311000      0.5315000      -0.4606000
Ne        0.4504000      0.2279000      0.5980000      -0.4203000
Ne        0.3877000      0.2295000      0.5415000      -0.4203000
H3        0.3217000      0.0476000      0.9451000       0.1381000
H3        0.3030000      0.0030000      0.9516000       0.1381000
H3        0.3012000      0.0381000      0.9873000       0.1381000
C2        0.2119000      0.0481000      0.9105000      -0.0662000
C2        0.2136000      0.0752000      0.9346000      -0.0662000
H2        0.1933000      0.0408000      0.8889000       0.1141000
H2        0.1952000      0.0979000      0.9389000       0.1141000
N1        0.2447000      0.0287000      0.9175000       0.0000000
N1        0.2444000      0.0725000      0.9575000       0.0000000
C1        0.2636000      0.0430000      0.9454000       0.4375000
C3        0.3001000      0.0319000      0.9581000      -0.4606000
Ne        0.2474000      0.0184000      0.9091000      -0.4203000
Ne        0.2479000      0.0792000      0.9686000      -0.4203000
H3        0.0216000      0.2449000      0.5250000       0.1381000
H3        0.0170000      0.2174000      0.5658000       0.1381000
H3        0.0538000      0.2111000      0.5369000       0.1381000
C2        0.0689000      0.3066000      0.6042000      -0.0662000
C2        0.0935000      0.3052000      0.5747000      -0.0662000
H2        0.0665000      0.3266000      0.6256000       0.1141000
H2        0.1179000      0.3198000      0.5680000       0.1141000
N1        0.0416000      0.2801000      0.5991000       0.0000000
N1        0.0860000      0.2757000      0.5534000       0.0000000
C1        0.0549000      0.2617000      0.5680000       0.4375000
C3        0.0357000      0.2319000      0.5480000      -0.4606000
Ne        0.0327000      0.2766000      0.6085000      -0.4203000
Ne        0.0914000      0.2717000      0.5418000      -0.4203000
H3        0.2268000      0.4352000      0.9840000       0.1381000
H3        0.2498000      0.4758000      0.9686000       0.1381000
H3        0.2068000      0.4655000      0.9556000       0.1381000
C2        0.2784000      0.4155000      0.8816000      -0.0662000
C2        0.2695000      0.3841000      0.8978000      -0.0662000
H2        0.2914000      0.4177000      0.8553000       0.1141000
H2        0.2782000      0.3568000      0.8918000       0.1141000
N1        0.2641000      0.4452000      0.9008000       0.0000000
N1        0.2509000      0.3941000      0.9297000       0.0000000
C1        0.2476000      0.4306000      0.9305000       0.4375000
C3        0.2330000      0.4525000      0.9605000      -0.4606000
Ne        0.2647000      0.4579000      0.8956000      -0.4203000
Ne        0.2490000      0.3871000      0.9410000      -0.4203000
H3        0.4555000      0.2106000      1.0000000       0.1381000
H3        0.4853000      0.2014000      0.9611000       0.1381000
H3        0.4498000      0.1725000      0.9662000       0.1381000
C2        0.4201000      0.2709000      0.9135000      -0.0662000
C2        0.3944000      0.2706000      0.9408000      -0.0662000
H2        0.4209000      0.2874000      0.8892000       0.1141000
H2        0.3695000      0.2863000      0.9430000       0.1141000
N1        0.4442000      0.2433000      0.9203000       0.0000000
N1        0.4055000      0.2447000      0.9657000       0.0000000
C1        0.4363000      0.2290000      0.9527000       0.4375000
C3        0.4577000      0.2009000      0.9722000      -0.4606000
Ne        0.4555000      0.2414000      0.9132000      -0.4203000
Ne        0.4009000      0.2436000      0.9784000      -0.4203000
H3        0.2049000      0.0184000      0.5328000       0.1381000
H3        0.2109000      0.0595000      0.5080000       0.1381000
H3        0.1846000      0.0630000      0.5458000       0.1381000
C2        0.2820000      0.0654000      0.5988000      -0.0662000
C2        0.2811000      0.0960000      0.5772000      -0.0662000
H2        0.3047000      0.0587000      0.6164000       0.1141000
H2        0.3001000      0.1184000      0.5766000       0.1141000
N1        0.2574000      0.0392000      0.5858000       0.0000000
N1        0.2528000      0.0935000      0.5518000       0.0000000
C1        0.2384000      0.0592000      0.5582000       0.4375000
C3        0.2079000      0.0478000      0.5353000      -0.4606000
Ne        0.2530000      0.0281000      0.5923000      -0.4203000
Ne        0.2474000      0.1006000      0.5415000      -0.4203000
H3        0.0424000      0.2884000      0.9605000       0.1381000
H3        0.0327000      0.2957000      0.9140000       0.1381000
H3        0.9989000      0.2771000      0.9454000       0.1381000
C2        0.0403000      0.1838000      0.9135000      -0.0662000
C2        0.0662000      0.1882000      0.9397000      -0.0662000
H2        0.0305000      0.1603000      0.8986000       0.1141000
H2        0.0852000      0.1684000      0.9502000       0.1141000
N1        0.0254000      0.2179000      0.9072000       0.0000000
N1        0.0695000      0.2230000      0.9481000       0.0000000
C1        0.0427000      0.2406000      0.9300000       0.4375000
C3        0.0276000      0.2776000      0.9373000      -0.4606000
Ne        0.0151000      0.2192000      0.8986000      -0.4203000
Ne        0.0789000      0.2257000      0.9573000      -0.4203000
H3        0.2666000      0.4880000      0.5328000       0.1381000
H3        0.2182000      0.4901000      0.5234000       0.1381000
H3        0.2479000      0.4644000      0.4947000       0.1381000
C2        0.2387000      0.4128000      0.5999000      -0.0662000
C2        0.2355000      0.3879000      0.5715000      -0.0662000
H2        0.2341000      0.4120000      0.6291000       0.1141000
H2        0.2257000      0.3601000      0.5723000       0.1141000
N1        0.2403000      0.4471000      0.5847000       0.0000000
N1        0.2368000      0.4077000      0.5399000       0.0000000
C1        0.2403000      0.4431000      0.5485000       0.4375000
C3        0.2428000      0.4734000      0.5226000      -0.4606000
Ne        0.2417000      0.4585000      0.5920000      -0.4203000
Ne        0.2344000      0.4050000      0.5269000      -0.4203000
H3        0.0476000      0.4104000      0.8048000       0.1381000
H3        0.0708000      0.4520000      0.8048000       0.1381000
H3        0.0219000      0.4498000      0.7915000       0.1381000
C2        0.0876000      0.4217000      0.7021000      -0.0662000
C2        0.0608000      0.3950000      0.7058000      -0.0662000
H2        0.1062000      0.4228000      0.6794000       0.1141000
H2        0.0514000      0.3763000      0.6853000       0.1141000
N1        0.0854000      0.4415000      0.7348000       0.0000000
N1        0.0395000      0.4004000      0.7367000       0.0000000
C1        0.0576000      0.4277000      0.7532000       0.4375000
C3        0.0489000      0.4369000      0.7915000      -0.4606000
Ne        0.0922000      0.4525000      0.7388000      -0.4203000
Ne        0.0305000      0.3920000      0.7421000      -0.4203000
H3        0.4834000      0.4642000      0.7256000       0.1381000
H3        0.4620000      0.4333000      0.6912000       0.1381000
H3        0.4404000      0.4739000      0.7053000       0.1381000
C2        0.4239000      0.3925000      0.7805000      -0.0662000
C2        0.3993000      0.4201000      0.7867000      -0.0662000
H2        0.4274000      0.3658000      0.7926000       0.1141000
H2        0.3747000      0.4228000      0.8024000       0.1141000
N1        0.4482000      0.4004000      0.7545000       0.0000000
N1        0.4096000      0.4469000      0.7615000       0.0000000
C1        0.4396000      0.4336000      0.7440000       0.4375000
C3        0.4585000      0.4520000      0.7142000      -0.4606000
Ne        0.4582000      0.3939000      0.7483000      -0.4203000
Ne        0.4042000      0.4585000      0.7583000      -0.4203000
H3        0.4750000      0.0692000      0.8045000       0.1381000
H3        0.4271000      0.0789000      0.8121000       0.1381000
H3        0.4398000      0.0330000      0.8105000       0.1381000
C2        0.4193000      0.0435000      0.7094000      -0.0662000
C2        0.4404000      0.0738000      0.7037000      -0.0662000
H2        0.4071000      0.0265000      0.6888000       0.1141000
H2        0.4452000      0.0884000      0.6788000       0.1141000
N1        0.4193000      0.0343000      0.7461000       0.0000000
N1        0.4542000      0.0849000      0.7369000       0.0000000
C1        0.4409000      0.0600000      0.7610000       0.4375000
C3        0.4469000      0.0600000      0.8002000      -0.4606000
Ne        0.4120000      0.0243000      0.7515000      -0.4203000
Ne        0.4634000      0.0943000      0.7396000      -0.4203000
H3        0.0741000      0.0711000      0.6964000       0.1381000
H3        0.0497000      0.0295000      0.7021000       0.1381000
H3        0.0289000      0.0743000      0.6994000       0.1381000
C2        0.0589000      0.0887000      0.8051000      -0.0662000
C2        0.0841000      0.0638000      0.8040000      -0.0662000
H2        0.0514000      0.1081000      0.8256000       0.1141000
H2        0.1030000      0.0562000      0.8251000       0.1141000
N1        0.0446000      0.0906000      0.7688000       0.0000000
N1        0.0868000      0.0492000      0.7680000       0.0000000
C1        0.0603000      0.0657000      0.7486000       0.4375000
C3        0.0514000      0.0581000      0.7104000      -0.4606000
Ne        0.0338000      0.0981000      0.7659000      -0.4203000
Ne        0.0973000      0.0416000      0.7645000      -0.4203000
H3        0.6775000      0.5493000      0.2638000       0.1381000
H3        0.6894000      0.5612000      0.3090000       0.1381000
H3        0.7210000      0.5428000      0.2774000       0.1381000
C2        0.6967000      0.4542000      0.3293000      -0.0662000
C2        0.6612000      0.4534000      0.3190000      -0.0662000
H2        0.7080000      0.4315000      0.3441000       0.1141000
H2        0.6434000      0.4298000      0.3212000       0.1141000
N1        0.7137000      0.4882000      0.3247000       0.0000000
N1        0.6580000      0.4858000      0.3006000       0.0000000
C1        0.6875000      0.5061000      0.3044000       0.4375000
C3        0.6931000      0.5407000      0.2879000      -0.4606000
Ne        0.7242000      0.4926000      0.3317000      -0.4203000
Ne        0.6475000      0.4877000      0.2922000      -0.4203000
H3        0.5639000      0.8070000      0.1898000       0.1381000
H3        0.5442000      0.7799000      0.2230000       0.1381000
H3        0.5574000      0.8251000      0.2352000       0.1381000
C2        0.4598000      0.8213000      0.1714000      -0.0662000
C2        0.4555000      0.8472000      0.1979000      -0.0662000
H2        0.4431000      0.8167000      0.1476000       0.1141000
H2        0.4336000      0.8664000      0.2028000       0.1141000
N1        0.4950000      0.8078000      0.1709000       0.0000000
N1        0.4885000      0.8456000      0.2168000       0.0000000
C1        0.5104000      0.8210000      0.2019000       0.4375000
C3        0.5461000      0.8080000      0.2136000      -0.4606000
Ne        0.5012000      0.7980000      0.1636000      -0.4203000
Ne        0.4904000      0.8553000      0.2260000      -0.4203000
H3        0.8070000      0.9340000      0.3241000       0.1381000
H3        0.8321000      0.9459000      0.2836000       0.1381000
H3        0.7845000      0.9564000      0.2898000       0.1381000
C2        0.8218000      0.0424000      0.3425000      -0.0662000
C2        0.8510000      0.0408000      0.3198000      -0.0662000
H2        0.8134000      0.0627000      0.3620000       0.1141000
H2        0.8751000      0.0576000      0.3182000       0.1141000
N1        0.8032000      0.0116000      0.3414000       0.0000000
N1        0.8505000      0.0067000      0.3030000       0.0000000
C1        0.8213000      0.9902000      0.3174000       0.4375000
C3        0.8110000      0.9546000      0.3030000      -0.4606000
Ne        0.7902000      0.0086000      0.3444000      -0.4203000
Ne        0.8572000      0.0032000      0.2917000      -0.4203000
H3        0.9524000      0.6694000      0.1641000       0.1381000
H3        0.9594000      0.6985000      0.1300000       0.1381000
H3        0.9710000      0.6510000      0.1241000       0.1381000
C2        0.0622000      0.7064000      0.1530000      -0.0662000
C2        0.0573000      0.6850000      0.1827000      -0.0662000
H2        0.0851000      0.7221000      0.1435000       0.1141000
H2        0.0765000      0.6777000      0.2038000       0.1141000
N1        0.0305000      0.7067000      0.1344000       0.0000000
N1        0.0251000      0.6694000      0.1819000       0.0000000
C1        0.0097000      0.6812000      0.1503000       0.4375000
C3        0.9719000      0.6745000      0.1422000      -0.4606000
Ne        0.0278000      0.7145000      0.1235000      -0.4203000
Ne        0.0197000      0.6621000      0.1922000      -0.4203000
H3        0.6977000      0.9637000      0.2219000       0.1381000
H3        0.6526000      0.9713000      0.2379000       0.1381000
H3        0.6602000      0.9437000      0.1990000       0.1381000
C2        0.6912000      0.0521000      0.1706000      -0.0662000
C2        0.6637000      0.0627000      0.1925000      -0.0662000
H2        0.7102000      0.0657000      0.1527000       0.1141000
H2        0.6529000      0.0897000      0.1971000       0.1141000
N1        0.6975000      0.0154000      0.1738000       0.0000000
N1        0.6488000      0.0308000      0.2090000       0.0000000
C1        0.6715000      0.0038000      0.1971000       0.4375000
C3        0.6696000      0.9681000      0.2136000      -0.4606000
Ne        0.7083000      0.0081000      0.1698000      -0.4203000
Ne        0.6388000      0.0284000      0.2176000      -0.4203000
H3        0.9581000      0.7988000      0.2695000       0.1381000
H3        0.9437000      0.8275000      0.3063000       0.1381000
H3        0.9570000      0.7821000      0.3128000       0.1381000
C2        0.0540000      0.8202000      0.3290000      -0.0662000
C2        0.0524000      0.8421000      0.2993000      -0.0662000
H2        0.0762000      0.8156000      0.3479000       0.1141000
H2        0.0716000      0.8624000      0.2898000       0.1141000
N1        0.0227000      0.8032000      0.3298000       0.0000000
N1        0.0211000      0.8380000      0.2806000       0.0000000
C1        0.0027000      0.8161000      0.3014000       0.4375000
C3        0.9637000      0.8070000      0.2976000      -0.4606000
Ne        0.0216000      0.7934000      0.3393000      -0.4203000
Ne        0.0167000      0.8421000      0.2684000      -0.4203000
H3        0.7756000      0.4674000      0.2233000       0.1381000
H3        0.8064000      0.4369000      0.2011000       0.1381000
H3        0.7615000      0.4490000      0.1803000       0.1381000
C2        0.8207000      0.5236000      0.1325000      -0.0662000
C2        0.8451000      0.5258000      0.1592000      -0.0662000
H2        0.8199000      0.5339000      0.1052000       0.1141000
H2        0.8705000      0.5407000      0.1584000       0.1141000
N1        0.7967000      0.4990000      0.1452000       0.0000000
N1        0.8370000      0.5026000      0.1871000       0.0000000
C1        0.8048000      0.4877000      0.1790000       0.4375000
C3        0.7851000      0.4571000      0.1968000      -0.4606000
Ne        0.7869000      0.4963000      0.1362000      -0.4203000
Ne        0.8426000      0.5042000      0.1992000      -0.4203000
H3        0.5320000      0.7275000      0.2766000       0.1381000
H3        0.5545000      0.7042000      0.3136000       0.1381000
H3        0.5518000      0.6826000      0.2725000       0.1381000
C2        0.4536000      0.6864000      0.3401000      -0.0662000
C2        0.4539000      0.6585000      0.3168000      -0.0662000
H2        0.4352000      0.6942000      0.3617000       0.1141000
H2        0.4352000      0.6361000      0.3128000       0.1141000
N1        0.4863000      0.7053000      0.3333000       0.0000000
N1        0.4831000      0.6575000      0.2949000       0.0000000
C1        0.5020000      0.6864000      0.3052000       0.4375000
C3        0.5363000      0.7013000      0.2898000      -0.4606000
Ne        0.4926000      0.7137000      0.3420000      -0.4203000
Ne        0.4882000      0.6485000      0.2863000      -0.4203000
H3        0.8034000      0.6867000      0.0508000       0.1381000
H3        0.8343000      0.6512000      0.0400000       0.1381000
H3        0.8497000      0.6961000      0.0400000       0.1381000
C2        0.8078000      0.6985000      0.9376000      -0.0662000
C2        0.7840000      0.6696000      0.9435000      -0.0662000
H2        0.8148000      0.7177000      0.9165000       0.1141000
H2        0.7653000      0.6569000      0.9246000       0.1141000
N1        0.8248000      0.7034000      0.9719000       0.0000000
N1        0.7888000      0.6575000      0.9778000       0.0000000
C1        0.8148000      0.6783000      0.9949000       0.4375000
C3        0.8261000      0.6791000      0.0333000      -0.4606000
Ne        0.8345000      0.7123000      0.9749000      -0.4203000
Ne        0.7837000      0.6453000      0.9813000      -0.4203000
H3        0.7104000      0.6953000      0.4042000       0.1381000
H3        0.7196000      0.7348000      0.4250000       0.1381000
H3        0.7532000      0.7002000      0.4233000       0.1381000
C2        0.7072000      0.6618000      0.5142000      -0.0662000
C2        0.6807000      0.6875000      0.5134000      -0.0662000
H2        0.7118000      0.6429000      0.5361000       0.1141000
H2        0.6653000      0.6945000      0.5374000       0.1141000
N1        0.7250000      0.6645000      0.4817000       0.0000000
N1        0.6802000      0.7048000      0.4809000       0.0000000
C1        0.7075000      0.6894000      0.4620000       0.4375000
C3        0.7245000      0.7056000      0.4285000      -0.4606000
Ne        0.7369000      0.6583000      0.4804000      -0.4203000
Ne        0.6729000      0.7150000      0.4763000      -0.4203000
H3        0.6569000      0.7956000      0.0770000       0.1381000
H3        0.6953000      0.7688000      0.0619000       0.1381000
H3        0.7029000      0.8102000      0.0746000       0.1381000
C2        0.6658000      0.7986000      0.9622000      -0.0662000
C2        0.6953000      0.8213000      0.9684000      -0.0662000
H2        0.6502000      0.7886000      0.9392000       0.1141000
H2        0.7083000      0.8391000      0.9486000       0.1141000
N1        0.6561000      0.7891000      0.9976000       0.0000000
N1        0.7026000      0.8280000      0.0032000       0.0000000
C1        0.6785000      0.8064000      0.0208000       0.4375000
C3        0.6815000      0.7953000      0.0603000      -0.4606000
Ne        0.6464000      0.7802000      0.0011000      -0.4203000
Ne        0.7140000      0.8348000      0.0057000      -0.4203000
H3        0.7851000      0.7621000      0.4882000       0.1381000
H3        0.7837000      0.7880000      0.4493000       0.1381000
H3        0.8216000      0.7613000      0.4552000       0.1381000
C2        0.8432000      0.8564000      0.5147000      -0.0662000
C2        0.8718000      0.8343000      0.5096000      -0.0662000
H2        0.8416000      0.8835000      0.5266000       0.1141000
H2        0.8994000      0.8343000      0.5199000       0.1141000
N1        0.8110000      0.8402000      0.4996000       0.0000000
N1        0.8602000      0.8037000      0.4928000       0.0000000
C1        0.8240000      0.8072000      0.4885000       0.4375000
C3        0.8026000      0.7783000      0.4704000      -0.4606000
Ne        0.7988000      0.8453000      0.5009000      -0.4203000
Ne        0.8664000      0.7921000      0.4890000      -0.4203000
H3        0.9054000      0.7897000      0.0438000       0.1381000
H3        0.9497000      0.7988000      0.0565000       0.1381000
H3        0.9151000      0.7815000      0.0879000       0.1381000
C2        0.9651000      0.6912000      0.0497000      -0.0662000
C2        0.9321000      0.6869000      0.0300000      -0.0662000
H2        0.9881000      0.6739000      0.0554000       0.1141000
H2        0.9202000      0.6642000      0.0154000       0.1141000
N1        0.9692000      0.7275000      0.0597000       0.0000000
N1        0.9151000      0.7191000      0.0308000       0.0000000
C1        0.9364000      0.7415000      0.0506000       0.4375000
C3        0.9275000      0.7794000      0.0608000      -0.4606000
Ne        0.9810000      0.7329000      0.0638000      -0.4203000
Ne        0.9043000      0.7213000      0.0232000      -0.4203000
H3        0.7832000      0.5172000      0.4612000       0.1381000
H3        0.8218000      0.5434000      0.4439000       0.1381000
H3        0.8005000      0.5069000      0.4179000       0.1381000
C2        0.7264000      0.5693000      0.3836000      -0.0662000
C2        0.7302000      0.5969000      0.4085000      -0.0662000
H2        0.7072000      0.5704000      0.3612000       0.1141000
H2        0.7148000      0.6215000      0.4128000       0.1141000
N1        0.7467000      0.5399000      0.3923000       0.0000000
N1        0.7561000      0.5847000      0.4312000       0.0000000
C1        0.7669000      0.5512000      0.4206000       0.4375000
C3        0.7964000      0.5290000      0.4374000      -0.4606000
Ne        0.7502000      0.5274000      0.3887000      -0.4203000
Ne        0.7605000      0.5910000      0.4423000      -0.4203000
H3        0.5296000      0.7088000      0.0911000       0.1381000
H3        0.5677000      0.6921000      0.0619000       0.1381000
H3        0.5266000      0.7115000      0.0441000       0.1381000
C2        0.5699000      0.8029000      0.0935000      -0.0662000
C2        0.5866000      0.8013000      0.0595000      -0.0662000
H2        0.5620000      0.8237000      0.1127000       0.1141000
H2        0.5961000      0.8245000      0.0443000       0.1141000
N1        0.5518000      0.7705000      0.1003000       0.0000000
N1        0.5788000      0.7669000      0.0449000       0.0000000
C1        0.5591000      0.7488000      0.0711000       0.4375000
C3        0.5461000      0.7118000      0.0665000      -0.4606000
Ne        0.5407000      0.7683000      0.1079000      -0.4203000
Ne        0.5850000      0.7621000      0.0341000      -0.4203000
H3        0.7118000      0.9894000      0.4552000       0.1381000
H3        0.7002000      0.9400000      0.4593000       0.1381000
H3        0.7237000      0.9610000      0.4936000       0.1381000
C2        0.8029000      0.9443000      0.4112000      -0.0662000
C2        0.8053000      0.9183000      0.4379000      -0.0662000
H2        0.8229000      0.9535000      0.3917000       0.1141000
H2        0.8270000      0.8983000      0.4415000       0.1141000
N1        0.7705000      0.9635000      0.4155000       0.0000000
N1        0.7759000      0.9232000      0.4612000       0.0000000
C1        0.7534000      0.9497000      0.4474000       0.4375000
C3        0.7196000      0.9621000      0.4642000      -0.4606000
Ne        0.7672000      0.9751000      0.4093000      -0.4203000
Ne        0.7721000      0.9143000      0.4704000      -0.4203000
H3        0.9905000      0.7121000      0.4463000       0.1381000
H3        0.9713000      0.6961000      0.4060000       0.1381000
H3        0.9464000      0.6945000      0.4479000       0.1381000
C2        0.9562000      0.8002000      0.4012000      -0.0662000
C2        0.9340000      0.8015000      0.4320000      -0.0662000
H2        0.9581000      0.8183000      0.3779000       0.1141000
H2        0.9210000      0.8232000      0.4469000       0.1141000
N1        0.9692000      0.7659000      0.3952000       0.0000000
N1        0.9343000      0.7680000      0.4466000       0.0000000
C1        0.9559000      0.7483000      0.4233000       0.4375000
C3        0.9651000      0.7107000      0.4312000      -0.4606000
Ne        0.9781000      0.7634000      0.3855000      -0.4203000
Ne        0.9294000      0.7640000      0.4585000      -0.4203000
H3        0.6875000      0.5207000      0.0392000       0.1381000
H3        0.7259000      0.4885000      0.0381000       0.1381000
H3        0.7183000      0.5196000      0.0030000       0.1381000
C2        0.7615000      0.5712000      0.0927000      -0.0662000
C2        0.7637000      0.5947000      0.0657000      -0.0662000
H2        0.7686000      0.5750000      0.1208000       0.1141000
H2        0.7767000      0.6210000      0.0619000       0.1141000
N1        0.7432000      0.5401000      0.0857000       0.0000000
N1        0.7445000      0.5777000      0.0395000       0.0000000
C1        0.7353000      0.5458000      0.0508000       0.4375000
C3        0.7161000      0.5163000      0.0324000      -0.4606000
Ne        0.7410000      0.5296000      0.0938000      -0.4203000
Ne        0.7440000      0.5845000      0.0278000      -0.4203000
H3        0.5796000      0.8167000      0.4204000       0.1381000
H3        0.5355000      0.8080000      0.4142000       0.1381000
H3        0.5555000      0.7964000      0.4582000       0.1381000
C2        0.5755000      0.7080000      0.3885000      -0.0662000
C2        0.6034000      0.7123000      0.4142000      -0.0662000
H2        0.5661000      0.6872000      0.3704000       0.1141000
H2        0.6212000      0.6899000      0.4209000       0.1141000
N1        0.5577000      0.7396000      0.3898000       0.0000000
N1        0.6012000      0.7442000      0.4309000       0.0000000
C1        0.5723000      0.7610000      0.4158000       0.4375000
C3        0.5591000      0.7967000      0.4288000      -0.4606000
Ne        0.5466000      0.7442000      0.3833000      -0.4203000
Ne        0.6104000      0.7469000      0.4404000      -0.4203000
H3        0.7569000      0.9813000      0.0411000       0.1381000
H3        0.7115000      0.9708000      0.0319000       0.1381000
H3        0.7486000      0.9454000      0.0119000       0.1381000
C2        0.7242000      0.9108000      0.1238000      -0.0662000
C2        0.7288000      0.8832000      0.0984000      -0.0662000
H2        0.7245000      0.9124000      0.1533000       0.1141000
H2        0.7283000      0.8556000      0.1084000       0.1141000
N1        0.7299000      0.9432000      0.1019000       0.0000000
N1        0.7353000      0.8954000      0.0638000       0.0000000
C1        0.7334000      0.9321000      0.0670000       0.4375000
C3        0.7383000      0.9586000      0.0368000      -0.4606000
Ne        0.7302000      0.9556000      0.1071000      -0.4203000
Ne        0.7394000      0.8878000      0.0533000      -0.4203000
H3        0.5250000      0.9454000      0.3101000       0.1381000
H3        0.5750000      0.9475000      0.3093000       0.1381000
H3        0.5480000      0.9867000      0.3001000       0.1381000
C2        0.5712000      0.9570000      0.2041000      -0.0662000
C2        0.5393000      0.9359000      0.2030000      -0.0662000
H2        0.5912000      0.9610000      0.1830000       0.1141000
H2        0.5231000      0.9243000      0.1811000       0.1141000
N1        0.5788000      0.9654000      0.2395000       0.0000000
N1        0.5272000      0.9340000      0.2379000       0.0000000
C1        0.5509000      0.9516000      0.2593000       0.4375000
C3        0.5493000      0.9573000      0.2974000      -0.4606000
Ne        0.5893000      0.9732000      0.2433000      -0.4203000
Ne        0.5163000      0.9281000      0.2436000      -0.4203000
H3        0.9232000      0.9529000      0.1830000       0.1381000
H3        0.9713000      0.9400000      0.1836000       0.1381000
H3        0.9378000      0.9070000      0.1771000       0.1381000
C2        0.9446000      0.8983000      0.2798000      -0.0662000
C2        0.9178000      0.9235000      0.2841000      -0.0662000
H2        0.9551000      0.8813000      0.3012000       0.1141000
H2        0.9043000      0.9302000      0.3090000       0.1141000
N1        0.9567000      0.8970000      0.2452000       0.0000000
N1        0.9121000      0.9383000      0.2511000       0.0000000
C1        0.9367000      0.9229000      0.2276000       0.4375000
C3        0.9435000      0.9327000      0.1911000      -0.4606000
Ne        0.9659000      0.8889000      0.2392000      -0.4203000
Ne        0.9029000      0.9475000      0.2476000      -0.4203000
H3        0.9865000      0.5247000      0.2179000       0.1381000
H3        0.9883000      0.5439000      0.2625000       0.1381000
H3        0.9564000      0.5134000      0.2563000       0.1381000
C2        0.8918000      0.5928000      0.2246000      -0.0662000
C2        0.9194000      0.6172000      0.2228000      -0.0662000
H2        0.8637000      0.5988000      0.2176000       0.1141000
H2        0.9183000      0.6461000      0.2174000       0.1141000
N1        0.9070000      0.5585000      0.2309000       0.0000000
N1        0.9519000      0.5999000      0.2268000       0.0000000
C1        0.9424000      0.5637000      0.2311000       0.4375000
C3        0.9702000      0.5347000      0.2409000      -0.4606000
Ne        0.8997000      0.5472000      0.2330000      -0.4203000
Ne        0.9640000      0.6058000      0.2271000      -0.4203000
H3        0.5353000      0.5236000      0.2122000       0.1381000
H3        0.5120000      0.5239000      0.2555000       0.1381000
H3        0.5069000      0.5612000      0.2249000       0.1381000
C2        0.5820000      0.6047000      0.2847000      -0.0662000
C2        0.6026000      0.5739000      0.2849000      -0.0662000
H2        0.5864000      0.6293000      0.3001000       0.1141000
H2        0.6266000      0.5677000      0.3006000       0.1141000
N1        0.5528000      0.5945000      0.2628000       0.0000000
N1        0.5877000      0.5442000      0.2679000       0.0000000
C1        0.5569000      0.5596000      0.2547000       0.4375000
C3        0.5261000      0.5404000      0.2349000      -0.4606000
Ne        0.5431000      0.6031000      0.2593000      -0.4203000
Ne        0.5934000      0.5323000      0.2652000      -0.4203000
H3        0.1952000      0.5669000      0.3058000       0.1381000
H3        0.2087000      0.5385000      0.2714000       0.1381000
H3        0.1598000      0.5588000      0.2720000       0.1381000
C2        0.1530000      0.4753000      0.3433000      -0.0662000
C2        0.1308000      0.4728000      0.3139000      -0.0662000
H2        0.1514000      0.4634000      0.3701000       0.1141000
H2        0.1095000      0.4536000      0.3074000       0.1141000
N1        0.1773000      0.5034000      0.3360000       0.0000000
N1        0.1414000      0.4974000      0.2895000       0.0000000
C1        0.1700000      0.5158000      0.3036000       0.4375000
C3        0.1844000      0.5482000      0.2852000      -0.4606000
Ne        0.1895000      0.5055000      0.3414000      -0.4203000
Ne        0.1349000      0.4982000      0.2776000      -0.4203000
H3        0.0492000      0.7824000      0.1898000       0.1381000
H3        0.0122000      0.7580000      0.1687000       0.1381000
H3        0.0059000      0.7837000      0.2060000       0.1381000
C2        0.0073000      0.8456000      0.1079000      -0.0662000
C2        0.0024000      0.8662000      0.1379000      -0.0662000
H2        0.0059000      0.8551000      0.0800000       0.1141000
H2        0.9989000      0.8954000      0.1411000       0.1141000
N1        0.0114000      0.8097000      0.1192000       0.0000000
N1        0.0046000      0.8456000      0.1668000       0.0000000
C1        0.0127000      0.8137000      0.1549000       0.4375000
C3        0.0208000      0.7842000      0.1800000      -0.4606000
Ne        0.0141000      0.7975000      0.1138000      -0.4203000
Ne        0.0005000      0.8480000      0.1795000      -0.4203000
H3        0.2703000      0.9551000      0.3041000       0.1381000
H3        0.3076000      0.9370000      0.3244000       0.1381000
H3        0.3130000      0.9500000      0.2806000       0.1381000
C2        0.3030000      0.0524000      0.3428000      -0.0662000
C2        0.3228000      0.0538000      0.3122000      -0.0662000
H2        0.2982000      0.0730000      0.3631000       0.1141000
H2        0.3336000      0.0784000      0.3001000       0.1141000
N1        0.2925000      0.0159000      0.3436000       0.0000000
N1        0.3233000      0.0208000      0.2944000       0.0000000
C1        0.3071000      0.9973000      0.3147000       0.4375000
C3        0.3001000      0.9589000      0.3058000      -0.4606000
Ne        0.2855000      0.0092000      0.3531000      -0.4203000
Ne        0.3279000      0.0178000      0.2822000      -0.4203000
H3        0.4320000      0.7015000      0.1852000       0.1381000
H3        0.4420000      0.6548000      0.1930000       0.1381000
H3        0.4498000      0.6904000      0.2276000       0.1381000
C2        0.5442000      0.6964000      0.1665000      -0.0662000
C2        0.5474000      0.6650000      0.1868000      -0.0662000
H2        0.5618000      0.7123000      0.1492000       0.1141000
H2        0.5728000      0.6510000      0.1914000       0.1141000
N1        0.5069000      0.7048000      0.1690000       0.0000000
N1        0.5144000      0.6575000      0.2025000       0.0000000
C1        0.4915000      0.6829000      0.1906000       0.4375000
C3        0.4507000      0.6826000      0.1987000      -0.4606000
Ne        0.4999000      0.7129000      0.1608000      -0.4203000
Ne        0.5120000      0.6472000      0.2109000      -0.4203000
H3        0.2017000      0.9478000      0.1982000       0.1381000
H3        0.2314000      0.9762000      0.2201000       0.1381000
H3        0.1900000      0.9605000      0.2417000       0.1381000
C2        0.1684000      0.0484000      0.1636000      -0.0662000
C2        0.1473000      0.0481000      0.1933000      -0.0662000
H2        0.1690000      0.0662000      0.1400000       0.1141000
H2        0.1287000      0.0670000      0.2060000       0.1141000
N1        0.1927000      0.0200000      0.1665000       0.0000000
N1        0.1563000      0.0181000      0.2138000       0.0000000
C1        0.1855000      0.0021000      0.1987000       0.4375000
C3        0.2025000      0.9710000      0.2168000      -0.4606000
Ne        0.2036000      0.0165000      0.1590000      -0.4203000
Ne        0.1481000      0.0146000      0.2241000      -0.4203000
H3        0.4398000      0.8291000      0.3103000       0.1381000
H3        0.4547000      0.7821000      0.3082000       0.1381000
H3        0.4604000      0.8072000      0.2701000       0.1381000
C2        0.5466000      0.8224000      0.3344000      -0.0662000
C2        0.5469000      0.8513000      0.3122000      -0.0662000
H2        0.5655000      0.8064000      0.3506000       0.1141000
H2        0.5688000      0.8699000      0.3066000       0.1141000
N1        0.5131000      0.8056000      0.3331000       0.0000000
N1        0.5134000      0.8537000      0.2966000       0.0000000
C1        0.4963000      0.8245000      0.3093000       0.4375000
C3        0.4604000      0.8102000      0.2998000      -0.4606000
Ne        0.5082000      0.7959000      0.3409000      -0.4203000
Ne        0.5069000      0.8616000      0.2876000      -0.4203000
H3        0.2730000      0.5282000      0.1855000       0.1381000
H3        0.3039000      0.5585000      0.1660000       0.1381000
H3        0.3136000      0.5407000      0.2095000       0.1381000
C2        0.3266000      0.4509000      0.1379000      -0.0662000
C2        0.3533000      0.4542000      0.1652000      -0.0662000
H2        0.3198000      0.4282000      0.1206000       0.1141000
H2        0.3750000      0.4363000      0.1738000       0.1141000
N1        0.3030000      0.4807000      0.1406000       0.0000000
N1        0.3487000      0.4880000      0.1822000       0.0000000
C1        0.3190000      0.5017000      0.1671000       0.4375000
C3        0.3022000      0.5342000      0.1827000      -0.4606000
Ne        0.2914000      0.4823000      0.1338000      -0.4203000
Ne        0.3552000      0.4931000      0.1930000      -0.4203000
H3        0.0319000      0.7186000      0.2444000       0.1381000
H3        0.0476000      0.7377000      0.2868000       0.1381000
H3        0.0638000      0.6929000      0.2730000       0.1381000
C2        0.9657000      0.6767000      0.3282000      -0.0662000
C2        0.9703000      0.6510000      0.3017000      -0.0662000
H2        0.9492000      0.6753000      0.3522000       0.1141000
H2        0.9519000      0.6291000      0.2941000       0.1141000
N1        0.9905000      0.7053000      0.3214000       0.0000000
N1        0.0005000      0.6626000      0.2790000       0.0000000
C1        0.0111000      0.6942000      0.2922000       0.4375000
C3        0.0414000      0.7126000      0.2720000      -0.4606000
Ne        0.9932000      0.7175000      0.3268000      -0.4203000
Ne        0.0049000      0.6558000      0.2682000      -0.4203000
H3        0.2947000      0.6818000      0.0535000       0.1381000
H3        0.3195000      0.7242000      0.0511000       0.1381000
H3        0.2755000      0.7175000      0.0284000       0.1381000
C2        0.3509000      0.6904000      0.9532000      -0.0662000
C2        0.3266000      0.6618000      0.9562000      -0.0662000
H2        0.3704000      0.6907000      0.9313000       0.1141000
H2        0.3209000      0.6399000      0.9376000       0.1141000
N1        0.3458000      0.7104000      0.9849000       0.0000000
N1        0.3058000      0.6623000      0.9870000       0.0000000
C1        0.3185000      0.6926000      0.0035000       0.4375000
C3        0.3014000      0.7053000      0.0368000      -0.4606000
Ne        0.3531000      0.7207000      0.9897000      -0.4203000
Ne        0.2971000      0.6537000      0.9924000      -0.4203000
H3        0.1898000      0.6645000      0.4393000       0.1381000
H3        0.1892000      0.7113000      0.4485000       0.1381000
H3        0.2306000      0.6823000      0.4534000       0.1381000
C2        0.1938000      0.6591000      0.5496000      -0.0662000
C2        0.1649000      0.6823000      0.5466000      -0.0662000
H2        0.2028000      0.6475000      0.5750000       0.1141000
H2        0.1468000      0.6926000      0.5672000       0.1141000
N1        0.2103000      0.6577000      0.5177000       0.0000000
N1        0.1638000      0.6967000      0.5117000       0.0000000
C1        0.1917000      0.6810000      0.4950000       0.4375000
C3        0.2011000      0.6856000      0.4571000      -0.4606000
Ne        0.2176000      0.6472000      0.5131000      -0.4203000
Ne        0.1525000      0.7031000      0.5080000      -0.4203000
H3        0.1887000      0.7688000      0.0243000       0.1381000
H3        0.2347000      0.7734000      0.0159000       0.1381000
H3        0.2152000      0.8099000      0.0365000       0.1381000
C2        0.1814000      0.8143000      0.9278000      -0.0662000
C2        0.2011000      0.8445000      0.9376000      -0.0662000
H2        0.1622000      0.8118000      0.9057000       0.1141000
H2        0.2073000      0.8694000      0.9232000       0.1141000
N1        0.1809000      0.7905000      0.9565000       0.0000000
N1        0.2146000      0.8397000      0.9727000       0.0000000
C1        0.2014000      0.8075000      0.9813000       0.4375000
C3        0.2092000      0.7888000      0.0162000      -0.4606000
Ne        0.1727000      0.7799000      0.9589000      -0.4203000
Ne        0.2236000      0.8462000      0.9805000      -0.4203000
H3        0.3047000      0.8272000      0.4377000       0.1381000
H3        0.3306000      0.7878000      0.4461000       0.1381000
H3        0.2830000      0.7918000      0.4561000       0.1381000
C2        0.3171000      0.8464000      0.5447000      -0.0662000
C2        0.3433000      0.8202000      0.5488000      -0.0662000
H2        0.3120000      0.8672000      0.5650000       0.1141000
H2        0.3558000      0.8102000      0.5734000       0.1141000
N1        0.3028000      0.8456000      0.5131000       0.0000000
N1        0.3431000      0.8005000      0.5150000       0.0000000
C1        0.3179000      0.8180000      0.4958000       0.4375000
C3        0.3095000      0.8056000      0.4574000      -0.4606000
Ne        0.2914000      0.8521000      0.5096000      -0.4203000
Ne        0.3504000      0.7899000      0.5107000      -0.4203000
H3        0.4796000      0.8137000      0.0787000       0.1381000
H3        0.4317000      0.8224000      0.0849000       0.1381000
H3        0.4536000      0.8126000      0.0427000       0.1381000
C2        0.4466000      0.7094000      0.0968000      -0.0662000
C2        0.4228000      0.7110000      0.0687000      -0.0662000
H2        0.4547000      0.6867000      0.1135000       0.1141000
H2        0.4055000      0.6899000      0.0579000       0.1141000
N1        0.4623000      0.7429000      0.1016000       0.0000000
N1        0.4225000      0.7450000      0.0562000       0.0000000
C1        0.4452000      0.7656000      0.0768000       0.4375000
C3        0.4520000      0.8051000      0.0716000      -0.4606000
Ne        0.4715000      0.7486000      0.1098000      -0.4203000
Ne        0.4174000      0.7488000      0.0443000      -0.4203000
H3        0.2303000      0.5039000      0.4517000       0.1381000
H3        0.2019000      0.5345000      0.4690000       0.1381000
H3        0.2479000      0.5369000      0.4823000       0.1381000
C2        0.2590000      0.5834000      0.3801000      -0.0662000
C2        0.2736000      0.6047000      0.4077000      -0.0662000
H2        0.2598000      0.5842000      0.3506000       0.1141000
H2        0.2852000      0.6318000      0.4085000       0.1141000
N1        0.2420000      0.5528000      0.3952000       0.0000000
N1        0.2606000      0.5912000      0.4401000       0.0000000
C1        0.2425000      0.5593000      0.4315000       0.4375000
C3        0.2298000      0.5328000      0.4590000      -0.4606000
Ne        0.2376000      0.5418000      0.3885000      -0.4203000
Ne        0.2590000      0.5956000      0.4528000      -0.4203000
H3        0.0708000      0.7096000      0.9829000       0.1381000
H3        0.0311000      0.7094000      0.0121000       0.1381000
H3        0.0703000      0.6929000      0.0294000       0.1381000
C2        0.0849000      0.7945000      0.0624000      -0.0662000
C2        0.1122000      0.7940000      0.0362000      -0.0662000
H2        0.0792000      0.8134000      0.0840000       0.1141000
H2        0.1379000      0.8078000      0.0324000       0.1141000
N1        0.0624000      0.7667000      0.0532000       0.0000000
N1        0.1046000      0.7648000      0.0127000       0.0000000
C1        0.0762000      0.7480000      0.0259000       0.4375000
C3        0.0606000      0.7134000      0.0105000      -0.4606000
Ne        0.0524000      0.7632000      0.0616000      -0.4203000
Ne        0.1125000      0.7596000      0.0029000      -0.4203000
H3        0.2163000      0.9673000      0.5034000       0.1381000
H3        0.1976000      0.9854000      0.4588000       0.1381000
H3        0.1868000      0.9405000      0.4801000       0.1381000
C2        0.2803000      0.9394000      0.4133000      -0.0662000
C2        0.2771000      0.9105000      0.4358000      -0.0662000
H2        0.2993000      0.9408000      0.3906000       0.1141000
H2        0.2936000      0.8862000      0.4339000       0.1141000
N1        0.2541000      0.9632000      0.4266000       0.0000000
N1        0.2506000      0.9135000      0.4615000       0.0000000
C1        0.2360000      0.9448000      0.4528000       0.4375000
C3        0.2065000      0.9624000      0.4755000      -0.4606000
Ne        0.2511000      0.9756000      0.4225000      -0.4203000
Ne        0.2468000      0.9062000      0.4720000      -0.4203000
H3        0.4823000      0.6991000      0.4434000       0.1381000
H3        0.4379000      0.6864000      0.4412000       0.1381000
H3        0.4509000      0.7069000      0.4817000       0.1381000
C2        0.4382000      0.7899000      0.3987000      -0.0662000
C2        0.4150000      0.7937000      0.4277000      -0.0662000
H2        0.4398000      0.8056000      0.3739000       0.1141000
H2        0.3963000      0.8156000      0.4342000       0.1141000
N1        0.4561000      0.7567000      0.4039000       0.0000000
N1        0.4185000      0.7640000      0.4512000       0.0000000
C1        0.4436000      0.7423000      0.4355000       0.4375000
C3        0.4552000      0.7077000      0.4523000      -0.4606000
Ne        0.4671000      0.7532000      0.3974000      -0.4203000
Ne        0.4082000      0.7605000      0.4590000      -0.4203000
H3        0.2095000      0.5299000      0.0276000       0.1381000
H3        0.2055000      0.5777000      0.0392000       0.1381000
H3        0.1976000      0.5463000      0.0725000       0.1381000
C2        0.3025000      0.5564000      0.0841000      -0.0662000
C2        0.3055000      0.5815000      0.0551000      -0.0662000
H2        0.3222000      0.5501000      0.1052000       0.1141000
H2        0.3293000      0.5969000      0.0473000       0.1141000
N1        0.2698000      0.5391000      0.0827000       0.0000000
N1        0.2733000      0.5801000      0.0362000       0.0000000
C1        0.2525000      0.5566000      0.0546000       0.4375000
C3        0.2144000      0.5509000      0.0481000      -0.4606000
Ne        0.2663000      0.5272000      0.0879000      -0.4203000
Ne        0.2698000      0.5880000      0.0257000      -0.4203000
H3        0.0433000      0.7956000      0.4236000       0.1381000
H3        0.0422000      0.7691000      0.4671000       0.1381000
H3        0.0800000      0.7905000      0.4555000       0.1381000
C2        0.0825000      0.7004000      0.3893000      -0.0662000
C2        0.1071000      0.6999000      0.4179000      -0.0662000
H2        0.0833000      0.6842000      0.3647000       0.1141000
H2        0.1317000      0.6837000      0.4177000       0.1141000
N1        0.0570000      0.7269000      0.3958000       0.0000000
N1        0.0979000      0.7272000      0.4425000       0.0000000
C1        0.0697000      0.7434000      0.4269000       0.4375000
C3        0.0568000      0.7769000      0.4423000      -0.4606000
Ne        0.0465000      0.7283000      0.3877000      -0.4203000
Ne        0.1041000      0.7310000      0.4542000      -0.4203000
H3        0.2574000      0.9700000      0.0268000       0.1381000
H3        0.2925000      0.9437000      0.0449000       0.1381000
H3        0.2766000      0.9821000      0.0692000       0.1381000
C2        0.2041000      0.9164000      0.1130000      -0.0662000
C2        0.2117000      0.8899000      0.0892000      -0.0662000
H2        0.1857000      0.9159000      0.1360000       0.1141000
H2        0.2014000      0.8624000      0.0884000       0.1141000
N1        0.2233000      0.9459000      0.1014000       0.0000000
N1        0.2336000      0.9029000      0.0606000       0.0000000
C1        0.2384000      0.9373000      0.0697000       0.4375000
C3        0.2682000      0.9592000      0.0524000      -0.4606000
Ne        0.2265000      0.9570000      0.1084000      -0.4203000
Ne        0.2371000      0.8972000      0.0489000      -0.4203000
H3        0.0311000      0.9537000      0.3017000       0.1381000
H3        0.0214000      0.9097000      0.2887000       0.1381000
H3        0.0630000      0.9186000      0.3120000       0.1381000
C2        0.0900000      0.9473000      0.2055000      -0.0662000
C2        0.0630000      0.9229000      0.1957000      -0.0662000
H2        0.1103000      0.9597000      0.1882000       0.1141000
H2        0.0587000      0.9113000      0.1690000       0.1141000
N1        0.0868000      0.9510000      0.2428000       0.0000000
N1        0.0416000      0.9132000      0.2255000       0.0000000
C1        0.0595000      0.9305000      0.2538000       0.4375000
C3        0.0441000      0.9289000      0.2914000      -0.4606000
Ne        0.0935000      0.9610000      0.2487000      -0.4203000
Ne        0.0335000      0.9024000      0.2246000      -0.4203000
H3        0.4579000      0.9427000      0.2144000       0.1381000
H3        0.4260000      0.9797000      0.2073000       0.1381000
H3        0.4644000      0.9873000      0.2309000       0.1381000
C2        0.4155000      0.9251000      0.3112000      -0.0662000
C2        0.3950000      0.9573000      0.3122000      -0.0662000
H2        0.4150000      0.9016000      0.3287000       0.1141000
H2        0.3771000      0.9659000      0.3339000       0.1141000
N1        0.4366000      0.9245000      0.2790000       0.0000000
N1        0.4028000      0.9751000      0.2811000       0.0000000
C1        0.4279000      0.9537000      0.2625000       0.4375000
C3        0.4442000      0.9659000      0.2265000      -0.4606000
Ne        0.4434000      0.9145000      0.2733000      -0.4203000
Ne        0.3958000      0.9854000      0.2766000      -0.4203000
H3        0.4228000      0.5342000      0.2939000       0.1381000
H3        0.4539000      0.5707000      0.2995000       0.1381000
H3        0.4096000      0.5812000      0.3055000       0.1381000
C2        0.4117000      0.5618000      0.1914000      -0.0662000
C2        0.4377000      0.5891000      0.1949000      -0.0662000
H2        0.3960000      0.5539000      0.1676000       0.1141000
H2        0.4515000      0.6026000      0.1730000       0.1141000
N1        0.4052000      0.5485000      0.2255000       0.0000000
N1        0.4485000      0.5918000      0.2319000       0.0000000
C1        0.4260000      0.5677000      0.2484000       0.4375000
C3        0.4269000      0.5634000      0.2893000      -0.4606000
Ne        0.3958000      0.5393000      0.2287000      -0.4203000
Ne        0.4607000      0.5942000      0.2371000      -0.4203000
H3        0.0779000      0.5928000      0.2987000       0.1381000
H3        0.0584000      0.5499000      0.2963000       0.1381000
H3        0.1073000      0.5564000      0.2901000       0.1381000
C2        0.0454000      0.5818000      0.1917000      -0.0662000
C2        0.0681000      0.5515000      0.1865000      -0.0662000
H2        0.0295000      0.5926000      0.1695000       0.1141000
H2        0.0687000      0.5345000      0.1627000       0.1141000
N1        0.0487000      0.5907000      0.2276000       0.0000000
N1        0.0811000      0.5418000      0.2201000       0.0000000
C1        0.0719000      0.5666000      0.2441000       0.4375000
C3        0.0800000      0.5666000      0.2844000      -0.4606000
Ne        0.0411000      0.6007000      0.2322000      -0.4203000
Ne        0.0884000      0.5315000      0.2249000      -0.4203000
H3        0.7402000      0.0173000      0.2844000       0.1381000
H3        0.7072000      0.0443000      0.2628000       0.1381000
H3        0.7253000      0.0611000      0.3060000       0.1381000
C2        0.6631000      0.9903000      0.3560000      -0.0662000
C2        0.6369000      0.9973000      0.3298000      -0.0662000
H2        0.6612000      0.9786000      0.3831000       0.1141000
H2        0.6077000      0.9935000      0.3285000       0.1141000
N1        0.6953000      0.0038000      0.3439000       0.0000000
N1        0.6539000      0.0135000      0.2987000       0.0000000
C1        0.6894000      0.0181000      0.3112000       0.4375000
C3        0.7186000      0.0373000      0.2895000      -0.4606000
Ne        0.7069000      0.9984000      0.3477000      -0.4203000
Ne        0.6488000      0.0154000      0.2863000      -0.4203000
H3        0.5304000      0.2884000      0.1827000       0.1381000
H3        0.5336000      0.3198000      0.2217000       0.1381000
H3        0.5507000      0.3322000      0.1809000       0.1381000
C2        0.4415000      0.3352000      0.1498000      -0.0662000
C2        0.4398000      0.3568000      0.1803000      -0.0662000
H2        0.4201000      0.3314000      0.1298000       0.1141000
H2        0.4169000      0.3728000      0.1890000       0.1141000
N1        0.4753000      0.3185000      0.1492000       0.0000000
N1        0.4731000      0.3541000      0.1973000       0.0000000
C1        0.4931000      0.3320000      0.1784000       0.4375000
C3        0.5282000      0.3166000      0.1925000      -0.4606000
Ne        0.4785000      0.3085000      0.1406000      -0.4203000
Ne        0.4774000      0.3620000      0.2073000      -0.4203000
H3        0.8245000      0.4393000      0.3076000       0.1381000
H3        0.7964000      0.4596000      0.2739000       0.1381000
H3        0.7791000      0.4558000      0.3190000       0.1381000
C2        0.8361000      0.5423000      0.3449000      -0.0662000
C2        0.8507000      0.5442000      0.3098000      -0.0662000
H2        0.8372000      0.5609000      0.3677000       0.1141000
H2        0.8643000      0.5669000      0.2971000       0.1141000
N1        0.8172000      0.5082000      0.3460000       0.0000000
N1        0.8424000      0.5147000      0.2898000       0.0000000
C1        0.8207000      0.4950000      0.3120000       0.4375000
C3        0.8037000      0.4601000      0.3028000      -0.4606000
Ne        0.8072000      0.5031000      0.3533000      -0.4203000
Ne        0.8459000      0.5126000      0.2771000      -0.4203000
H3        0.9665000      0.2360000      0.2203000       0.1381000
H3        0.9391000      0.2160000      0.1884000       0.1381000
H3        0.9448000      0.1927000      0.2317000       0.1381000
C2        0.0389000      0.1757000      0.1663000      -0.0662000
C2        0.0327000      0.1511000      0.1938000      -0.0662000
H2        0.0589000      0.1787000      0.1449000       0.1141000
H2        0.0508000      0.1292000      0.2011000       0.1141000
N1        0.0097000      0.1998000      0.1652000       0.0000000
N1        0.9992000      0.1608000      0.2109000       0.0000000
C1        0.9870000      0.1906000      0.1925000       0.4375000
C3        0.9581000      0.2092000      0.2106000      -0.4606000
Ne        0.0078000      0.2079000      0.1546000      -0.4203000
Ne        0.9935000      0.1554000      0.2217000      -0.4203000
H3        0.6883000      0.4260000      0.1673000       0.1381000
H3        0.6702000      0.4312000      0.2114000       0.1381000
H3        0.6423000      0.4312000      0.1695000       0.1381000
C2        0.6929000      0.5342000      0.1700000      -0.0662000
C2        0.6626000      0.5380000      0.1917000      -0.0662000
H2        0.7131000      0.5531000      0.1600000       0.1141000
H2        0.6531000      0.5639000      0.2022000       0.1141000
N1        0.6985000      0.4985000      0.1633000       0.0000000
N1        0.6491000      0.5015000      0.1992000       0.0000000
C1        0.6737000      0.4785000      0.1814000       0.4375000
C3        0.6672000      0.4401000      0.1833000      -0.4606000
Ne        0.7067000      0.4939000      0.1536000      -0.4203000
Ne        0.6404000      0.4990000      0.2092000      -0.4203000
H3        0.9443000      0.3020000      0.2679000       0.1381000
H3        0.9229000      0.3060000      0.3101000       0.1381000
H3        0.9448000      0.2657000      0.3003000       0.1381000
C2        0.0343000      0.3252000      0.3366000      -0.0662000
C2        0.0305000      0.3477000      0.3079000      -0.0662000
H2        0.0538000      0.3249000      0.3585000       0.1141000
H2        0.0476000      0.3698000      0.2987000       0.1141000
N1        0.0043000      0.3033000      0.3366000       0.0000000
N1        0.9994000      0.3374000      0.2887000       0.0000000
C1        0.9821000      0.3114000      0.3076000       0.4375000
C3        0.9473000      0.2952000      0.2966000      -0.4606000
Ne        0.0008000      0.2947000      0.3463000      -0.4203000
Ne        0.9959000      0.3406000      0.2760000      -0.4203000
H3        0.7569000      0.0260000      0.2117000       0.1381000
H3        0.8002000      0.0468000      0.2098000       0.1381000
H3        0.7834000      0.0208000      0.2490000       0.1381000
C2        0.8207000      0.9513000      0.1598000      -0.0662000
C2        0.8456000      0.9476000      0.1871000      -0.0662000
H2        0.8232000      0.9421000      0.1319000       0.1141000
H2        0.8689000      0.9300000      0.1914000       0.1141000
N1        0.7953000      0.9776000      0.1687000       0.0000000
N1        0.8343000      0.9735000      0.2125000       0.0000000
C1        0.8037000      0.9889000      0.2019000       0.4375000
C3        0.7853000      0.0227000      0.2192000      -0.4606000
Ne        0.7848000      0.9824000      0.1617000      -0.4203000
Ne        0.8416000      0.9768000      0.2233000      -0.4203000
H3        0.5323000      0.2360000      0.3030000       0.1381000
H3        0.5396000      0.2184000      0.3447000       0.1381000
H3        0.5412000      0.1879000      0.3041000       0.1381000
C2        0.4298000      0.2049000      0.3252000      -0.0662000
C2        0.4377000      0.1814000      0.2979000      -0.0662000
H2        0.4039000      0.2095000      0.3379000       0.1141000
H2        0.4179000      0.1681000      0.2806000       0.1141000
N1        0.4634000      0.2152000      0.3406000       0.0000000
N1        0.4747000      0.1782000      0.2928000       0.0000000
C1        0.4885000      0.1998000      0.3190000       0.4375000
C3        0.5282000      0.2106000      0.3182000      -0.4606000
Ne        0.4671000      0.2236000      0.3506000      -0.4203000
Ne        0.4817000      0.1700000      0.2849000      -0.4203000
H3        0.7897000      0.2122000      0.0533000       0.1381000
H3        0.7469000      0.1941000      0.0419000       0.1381000
H3        0.7826000      0.1652000      0.0619000       0.1381000
C2        0.8216000      0.1733000      0.9608000      -0.0662000
C2        0.7948000      0.1481000      0.9565000      -0.0662000
H2        0.8410000      0.1865000      0.9432000       0.1141000
H2        0.7886000      0.1300000      0.9340000       0.1141000
N1        0.8188000      0.1922000      0.9922000       0.0000000
N1        0.7761000      0.1484000      0.9881000       0.0000000
C1        0.7918000      0.1746000      0.0095000       0.4375000
C3        0.7759000      0.1876000      0.0435000      -0.4606000
Ne        0.8259000      0.2033000      0.9957000      -0.4203000
Ne        0.7667000      0.1398000      0.9924000      -0.4203000
H3        0.6888000      0.2255000      0.4566000       0.1381000
H3        0.7096000      0.1838000      0.4520000       0.1381000
H3        0.6615000      0.1892000      0.4396000       0.1381000
C2        0.6788000      0.1487000      0.5445000      -0.0662000
C2        0.6542000      0.1771000      0.5504000      -0.0662000
H2        0.6891000      0.1287000      0.5634000       0.1141000
H2        0.6418000      0.1838000      0.5761000       0.1141000
N1        0.6948000      0.1552000      0.5101000       0.0000000
N1        0.6518000      0.1992000      0.5204000       0.0000000
C1        0.6764000      0.1844000      0.4963000       0.4375000
C3        0.6834000      0.1963000      0.4585000      -0.4606000
Ne        0.7050000      0.1492000      0.5039000      -0.4203000
Ne        0.6415000      0.2071000      0.5166000      -0.4203000
H3        0.7272000      0.2849000      0.0381000       0.1381000
H3        0.6934000      0.2495000      0.0349000       0.1381000
H3        0.7288000      0.2552000      0.0032000       0.1381000
C2        0.6404000      0.3193000      0.9827000      -0.0662000
C2        0.6666000      0.3458000      0.9811000      -0.0662000
H2        0.6123000      0.3214000      0.9743000       0.1141000
H2        0.6664000      0.3733000      0.9711000       0.1141000
N1        0.6518000      0.2855000      0.9954000       0.0000000
N1        0.6958000      0.3309000      0.9962000       0.0000000
C1        0.6856000      0.2963000      0.0016000       0.4375000
C3        0.7091000      0.2698000      0.0200000      -0.4606000
Ne        0.6458000      0.2736000      0.9962000      -0.4203000
Ne        0.7086000      0.3358000      0.9959000      -0.4203000
H3        0.7988000      0.2617000      0.4525000       0.1381000
H3        0.7529000      0.2771000      0.4596000       0.1381000
H3        0.7861000      0.3074000      0.4382000       0.1381000
C2        0.8034000      0.3339000      0.5380000      -0.0662000
C2        0.8310000      0.3098000      0.5369000      -0.0662000
H2        0.8026000      0.3577000      0.5553000       0.1141000
H2        0.8532000      0.3033000      0.5553000       0.1141000
N1        0.7826000      0.3304000      0.5069000       0.0000000
N1        0.8243000      0.2874000      0.5066000       0.0000000
C1        0.7953000      0.3009000      0.4901000       0.4375000
C3        0.7815000      0.2855000      0.4577000      -0.4606000
Ne        0.7732000      0.3382000      0.5012000      -0.4203000
Ne        0.8332000      0.2774000      0.5042000      -0.4203000
H3        0.9675000      0.2155000      0.0141000       0.1381000
H3        0.9819000      0.2630000      0.0281000       0.1381000
H3        0.9437000      0.2552000      0.9989000       0.1381000
C2        0.9262000      0.2160000      0.1071000      -0.0662000
C2        0.8943000      0.2165000      0.0854000      -0.0662000
H2        0.9324000      0.2011000      0.1317000       0.1141000
H2        0.8689000      0.2036000      0.0925000       0.1141000
N1        0.9543000      0.2298000      0.0854000       0.0000000
N1        0.9043000      0.2279000      0.0519000       0.0000000
C1        0.9394000      0.2363000      0.0538000       0.4375000
C3        0.9605000      0.2438000      0.0205000      -0.4606000
Ne        0.9670000      0.2319000      0.0892000      -0.4203000
Ne        0.8967000      0.2271000      0.0408000      -0.4203000
H3        0.7848000      0.0197000      0.4515000       0.1381000
H3        0.7970000      0.0641000      0.4617000       0.1381000
H3        0.8037000      0.0435000      0.4158000       0.1381000
C2        0.7037000      0.0719000      0.3990000      -0.0662000
C2        0.7029000      0.0930000      0.4296000      -0.0662000
H2        0.6858000      0.0738000      0.3758000       0.1141000
H2        0.6829000      0.1127000      0.4388000       0.1141000
N1        0.7361000      0.0538000      0.3993000       0.0000000
N1        0.7313000      0.0876000      0.4507000       0.0000000
C1        0.7518000      0.0633000      0.4304000       0.4375000
C3        0.7864000      0.0470000      0.4396000      -0.4606000
Ne        0.7391000      0.0427000      0.3923000      -0.4203000
Ne        0.7348000      0.0908000      0.4634000      -0.4203000
H3        0.5004000      0.2025000      0.0643000       0.1381000
H3        0.5428000      0.1833000      0.0835000       0.1381000
H3        0.5377000      0.1911000      0.0360000       0.1381000
C2        0.5539000      0.2920000      0.0787000      -0.0662000
C2        0.5861000      0.2822000      0.0622000      -0.0662000
H2        0.5442000      0.3193000      0.0838000       0.1141000
H2        0.6118000      0.2925000      0.0524000       0.1141000
N1        0.5290000      0.2657000      0.0833000       0.0000000
N1        0.5774000      0.2468000      0.0527000       0.0000000
C1        0.5445000      0.2376000      0.0676000       0.4375000
C3        0.5301000      0.2009000      0.0630000      -0.4606000
Ne        0.5185000      0.2660000      0.0916000      -0.4203000
Ne        0.5850000      0.2409000      0.0435000      -0.4203000
H3        0.7107000      0.4739000      0.4363000       0.1381000
H3        0.6829000      0.4331000      0.4342000       0.1381000
H3        0.7158000      0.4382000      0.4690000       0.1381000
C2        0.7832000      0.4131000      0.3828000      -0.0662000
C2        0.7810000      0.3850000      0.4077000      -0.0662000
H2        0.7978000      0.4144000      0.3571000       0.1141000
H2        0.7986000      0.3614000      0.4106000       0.1141000
N1        0.7583000      0.4390000      0.3912000       0.0000000
N1        0.7534000      0.3931000      0.4317000       0.0000000
C1        0.7399000      0.4263000      0.4215000       0.4375000
C3        0.7096000      0.4444000      0.4406000      -0.4606000
Ne        0.7550000      0.4493000      0.3828000      -0.4203000
Ne        0.7521000      0.3871000      0.4439000      -0.4203000
H3        0.9391000      0.2087000      0.4807000       0.1381000
H3        0.9697000      0.2455000      0.4863000       0.1381000
H3        0.9759000      0.2171000      0.4517000       0.1381000
C2        0.9059000      0.2730000      0.3931000      -0.0662000
C2        0.8778000      0.2652000      0.4166000      -0.0662000
H2        0.9054000      0.2839000      0.3658000       0.1141000
H2        0.8486000      0.2636000      0.4131000       0.1141000
N1        0.9397000      0.2663000      0.4104000       0.0000000
N1        0.8935000      0.2511000      0.4485000       0.0000000
C1        0.9297000      0.2506000      0.4412000       0.4375000
C3        0.9535000      0.2303000      0.4663000      -0.4606000
Ne        0.9529000      0.2663000      0.4069000      -0.4203000
Ne        0.8870000      0.2476000      0.4598000      -0.4203000
H3        0.6769000      0.0557000      0.0898000       0.1381000
H3        0.6880000      0.0097000      0.0852000       0.1381000
H3        0.6767000      0.0357000      0.0468000       0.1381000
C2        0.7853000      0.0570000      0.0846000      -0.0662000
C2        0.7780000      0.0773000      0.0543000      -0.0662000
H2        0.8099000      0.0506000      0.0995000       0.1141000
H2        0.7945000      0.0954000      0.0381000       0.1141000
N1        0.7559000      0.0395000      0.0962000       0.0000000
N1        0.7402000      0.0738000      0.0468000       0.0000000
C1        0.7291000      0.0489000      0.0706000       0.4375000
C3        0.6918000      0.0365000      0.0725000      -0.4606000
Ne        0.7537000      0.0295000      0.1052000      -0.4203000
Ne        0.7353000      0.0795000      0.0354000      -0.4203000
H3        0.5217000      0.3055000      0.4366000       0.1381000
H3        0.5591000      0.3039000      0.4674000       0.1381000
H3        0.5655000      0.3112000      0.4188000       0.1381000
C2        0.5336000      0.2011000      0.4185000      -0.0662000
C2        0.5615000      0.2003000      0.4434000      -0.0662000
H2        0.5174000      0.1806000      0.4052000       0.1141000
H2        0.5766000      0.1765000      0.4520000       0.1141000
N1        0.5280000      0.2379000      0.4128000       0.0000000
N1        0.5709000      0.2338000      0.4561000       0.0000000
C1        0.5501000      0.2571000      0.4366000       0.4375000
C3        0.5499000      0.2968000      0.4398000      -0.4606000
Ne        0.5177000      0.2430000      0.4058000      -0.4203000
Ne        0.5799000      0.2395000      0.4647000      -0.4203000
H3        0.8151000      0.4317000      0.0725000       0.1381000
H3        0.7961000      0.4731000      0.0779000       0.1381000
H3        0.7937000      0.4515000      0.0338000       0.1381000
C2        0.7015000      0.4188000      0.0908000      -0.0662000
C2        0.7077000      0.3996000      0.0584000      -0.0662000
H2        0.6785000      0.4244000      0.1084000       0.1141000
H2        0.6923000      0.3785000      0.0446000       0.1141000
N1        0.7329000      0.4404000      0.0930000       0.0000000
N1        0.7413000      0.4069000      0.0435000       0.0000000
C1        0.7556000      0.4304000      0.0684000       0.4375000
C3        0.7915000      0.4474000      0.0633000      -0.4606000
Ne        0.7350000      0.4507000      0.1016000      -0.4203000
Ne        0.7475000      0.4014000      0.0327000      -0.4203000
H3        0.5893000      0.4063000      0.2982000       0.1381000
H3        0.5707000      0.4525000      0.3006000       0.1381000
H3        0.5423000      0.4139000      0.3022000       0.1381000
C2        0.5780000      0.4507000      0.1968000      -0.0662000
C2        0.5507000      0.4269000      0.1944000      -0.0662000
H2        0.5928000      0.4658000      0.1768000       0.1141000
H2        0.5366000      0.4190000      0.1698000       0.1141000
N1        0.5858000      0.4534000      0.2347000       0.0000000
N1        0.5399000      0.4152000      0.2282000       0.0000000
C1        0.5642000      0.4296000      0.2511000       0.4375000
C3        0.5674000      0.4247000      0.2901000      -0.4606000
Ne        0.5928000      0.4639000      0.2390000      -0.4203000
Ne        0.5293000      0.4074000      0.2317000      -0.4203000
H3        0.9216000      0.4688000      0.1771000       0.1381000
H3        0.9659000      0.4571000      0.1876000       0.1381000
H3        0.9373000      0.4244000      0.1698000       0.1381000
C2        0.9375000      0.4150000      0.2801000      -0.0662000
C2        0.9135000      0.4431000      0.2833000      -0.0662000
H2        0.9454000      0.3936000      0.2990000       0.1141000
H2        0.9010000      0.4534000      0.3076000       0.1141000
N1        0.9467000      0.4109000      0.2447000       0.0000000
N1        0.9083000      0.4590000      0.2490000       0.0000000
C1        0.9278000      0.4385000      0.2265000       0.4375000
C3        0.9381000      0.4471000      0.1892000      -0.4606000
Ne        0.9556000      0.4012000      0.2414000      -0.4203000
Ne        0.9032000      0.4712000      0.2468000      -0.4203000
H3        0.9335000      0.0122000      0.3028000       0.1381000
H3        0.9646000      0.0105000      0.2649000       0.1381000
H3        0.9667000      0.0476000      0.2982000       0.1381000
C2        0.8883000      0.0730000      0.2155000      -0.0662000
C2        0.9145000      0.0998000      0.2241000      -0.0662000
H2        0.8689000      0.0730000      0.1933000       0.1141000
H2        0.9140000      0.1273000      0.2141000       0.1141000
N1        0.8983000      0.0430000      0.2352000       0.0000000
N1        0.9386000      0.0849000      0.2501000       0.0000000
C1        0.9283000      0.0497000      0.2563000       0.4375000
C3        0.9494000      0.0284000      0.2836000      -0.4606000
Ne        0.8908000      0.0319000      0.2349000      -0.4203000
Ne        0.9494000      0.0919000      0.2544000      -0.4203000
H3        0.5301000      0.0433000      0.2114000       0.1381000
H3        0.5269000      0.0900000      0.2014000       0.1381000
H3        0.5707000      0.0635000      0.2049000       0.1381000
C2        0.5307000      0.0781000      0.3125000      -0.0662000
C2        0.5620000      0.0557000      0.3098000      -0.0662000
H2        0.5163000      0.0889000      0.3358000       0.1141000
H2        0.5758000      0.0446000      0.3333000       0.1141000
N1        0.5234000      0.0900000      0.2766000       0.0000000
N1        0.5731000      0.0554000      0.2747000       0.0000000
C1        0.5493000      0.0749000      0.2552000       0.4375000
C3        0.5436000      0.0697000      0.2152000      -0.4606000
Ne        0.5150000      0.0987000      0.2709000      -0.4203000
Ne        0.5810000      0.0457000      0.2693000      -0.4203000
