data_Surface_Maker_code
_audit_creation_method iGOR
_audit_author_name 'Salvador R. G. Balestra'
_cell_length_a         67.9599991
_cell_length_b         67.9599991
_cell_length_c         67.9599991
_cell_angle_alpha         90.0000000
_cell_angle_beta         90.0000000
_cell_angle_gamma         90.0000000
_cell_volume     313877.4375000
_symmetry_space_group_name_hall 'p 1'
_symmetry_space_group_name_h-m 'p 1'
_symmetry_int_tables_number 1
_symmetry_equiv_pos_as_xyz 'x,y,z'
loop_
_atom_site_label
_atom_site_fract_x
_atom_site_fract_y
_atom_site_fract_z
Zn      0.3661270      0.5288544      0.4143143  
Zn      0.4911270      0.4038544      0.2892990  
Zn      0.3667755      0.2795486      0.2892456  
Zn      0.4917755      0.4045639      0.4142609  
Zn      0.4290771      0.4037704      0.2265015  
Zn      0.3662720      0.3416595      0.2263565  
Zn      0.3040161      0.4044113      0.2271500  
Zn      0.3669205      0.4666595      0.2270432  
Zn      0.4912720      0.4667130      0.3513565  
Zn      0.4919357      0.3416595      0.3520584  
Zn      0.3040161      0.5287704      0.3515167  
Zn      0.4290161      0.5294571      0.3521652  
Zn      0.6161270      0.7788849      0.6643295  
Zn      0.7411423      0.6538696      0.5393143  
Zn      0.6167755      0.5295639      0.5392761  
Zn      0.7417908      0.6545792      0.6642761  
Zn      0.6790924      0.6537704      0.4765167  
Zn      0.6162720      0.5916748      0.4763565  
Zn      0.5540314      0.6544113      0.4771652  
Zn      0.6169357      0.7166748      0.4770584  
Zn      0.7412872      0.7167130      0.6013718  
Zn      0.7419357      0.5916748      0.6020737  
Zn      0.5540314      0.7787781      0.6015167  
Zn      0.6790466      0.7794724      0.6021652  
Zn      0.3661270      0.7788849      0.6643295  
Zn      0.4911270      0.6538696      0.5393143  
Zn      0.3667755      0.5295639      0.5392761  
Zn      0.4917755      0.6545792      0.6642761  
Zn      0.4290771      0.6537704      0.4765167  
Zn      0.3662720      0.5916748      0.4763565  
Zn      0.3040161      0.6544113      0.4771652  
Zn      0.3669205      0.7166748      0.4770584  
Zn      0.4912720      0.7167130      0.6013718  
Zn      0.4919357      0.5916748      0.6020737  
Zn      0.3040161      0.7787781      0.6015167  
Zn      0.4290161      0.7794724      0.6021652  
Zn      0.6161270      0.5288544      0.6643295  
Zn      0.7411423      0.4038544      0.5393143  
Zn      0.6167755      0.7795792      0.5392761  
Zn      0.7417908      0.4045639      0.6642761  
Zn      0.6790924      0.4037704      0.4765167  
Zn      0.6162720      0.3416595      0.4763565  
Zn      0.5540314      0.4044113      0.4771652  
Zn      0.6169357      0.4666595      0.4770584  
Zn      0.7412872      0.4667130      0.6013718  
Zn      0.7419357      0.3416595      0.6020737  
Zn      0.5540314      0.5287704      0.6015167  
Zn      0.6790466      0.5294571      0.6021652  
Zn      0.3661270      0.5288544      0.6643295  
Zn      0.4911270      0.4038544      0.5393143  
Zn      0.3667755      0.7795792      0.5392761  
Zn      0.4917755      0.4045639      0.6642761  
Zn      0.4290771      0.4037704      0.4765167  
Zn      0.3662720      0.3416595      0.4763565  
Zn      0.3040161      0.4044113      0.4771652  
Zn      0.3669205      0.4666595      0.4770584  
Zn      0.4912720      0.4667130      0.6013718  
Zn      0.4919357      0.3416595      0.6020737  
Zn      0.3040161      0.5287704      0.6015167  
Zn      0.4290161      0.5294571      0.6021652  
Zn      0.6161270      0.7788849      0.4143143  
Zn      0.7411423      0.6538696      0.2892990  
Zn      0.6167755      0.5295639      0.2892456  
Zn      0.7417908      0.6545792      0.4142609  
Zn      0.6790924      0.6537704      0.2265015  
Zn      0.6162720      0.5916748      0.2263565  
Zn      0.5540314      0.6544113      0.2271500  
Zn      0.6169357      0.7166748      0.2270432  
Zn      0.7412872      0.7167130      0.3513565  
Zn      0.7419357      0.5916748      0.3520584  
Zn      0.5540314      0.7787781      0.3515167  
Zn      0.6790466      0.7794724      0.3521652  
Zn      0.3661270      0.7788849      0.4143143  
Zn      0.4911270      0.6538696      0.2892990  
Zn      0.3667755      0.5295639      0.2892456  
Zn      0.4917755      0.6545792      0.4142609  
Zn      0.4290771      0.6537704      0.2265015  
Zn      0.3662720      0.5916748      0.2263565  
Zn      0.3040161      0.6544113      0.2271500  
Zn      0.3669205      0.7166748      0.2270432  
Zn      0.4912720      0.7167130      0.3513565  
Zn      0.4919357      0.5916748      0.3520584  
Zn      0.3040161      0.7787781      0.3515167  
Zn      0.4290161      0.7794724      0.3521652  
Zn      0.6161270      0.5288544      0.4143143  
Zn      0.7411423      0.4038544      0.2892990  
Zn      0.6167755      0.2795486      0.2892456  
Zn      0.7417908      0.4045639      0.4142609  
Zn      0.6790924      0.4037704      0.2265015  
Zn      0.6162720      0.3416595      0.2263565  
Zn      0.5540314      0.4044113      0.2271500  
Zn      0.6169357      0.4666595      0.2270432  
Zn      0.7412872      0.4667130      0.3513565  
Zn      0.7419357      0.3416595      0.3520584  
Zn      0.5540314      0.5287704      0.3515167  
Zn      0.6790466      0.5294571      0.3521652  
Zn      0.6161270      0.2788544      0.6643295  
Zn      0.5540314      0.2787552      0.6015167  
Zn      0.6790466      0.2794418      0.6021652  
Zn      0.3661270      0.2788544      0.6643295  
Zn      0.3040161      0.2787552      0.6015167  
Zn      0.4290161      0.2794418      0.6021652  
Zn      0.6167755      0.2795486      0.5392761  
Zn      0.3667755      0.2795486      0.5392761  
Zn      0.6161270      0.2788544      0.4143143  
Zn      0.5540314      0.2787552      0.3515167  
Zn      0.6790466      0.2794418      0.3521652  
Zn      0.3661270      0.2788544      0.4143143  
Zn      0.3040161      0.2787552      0.3515167  
Zn      0.4290161      0.2794418      0.3521652  
Zn      0.2411118      0.6538696      0.5393143  
Zn      0.2417603      0.6545792      0.6642761  
Zn      0.2412567      0.7167130      0.6013718  
Zn      0.2419052      0.5916748      0.6020737  
Zn      0.2411118      0.4038544      0.5393143  
Zn      0.2417603      0.4045639      0.6642761  
Zn      0.2412567      0.4667130      0.6013718  
Zn      0.2419052      0.3416595      0.6020737  
Zn      0.2411118      0.6538696      0.2892990  
Zn      0.2417603      0.6545792      0.4142609  
Zn      0.2412567      0.7167130      0.3513565  
Zn      0.2419052      0.5916748      0.3520584  
Zn      0.2411118      0.4038544      0.2892990  
Zn      0.2417603      0.4045639      0.4142609  
Zn      0.2412567      0.4667130      0.3513565  
Zn      0.2419052      0.3416595      0.3520584  
Zn      0.3667755      0.7795792      0.2892456  
Zn      0.6167755      0.7795792      0.2892456  
Zn      0.4290771      0.4037704      0.7265320  
Zn      0.3662720      0.3416595      0.7263794  
Zn      0.3040161      0.4044113      0.7271805  
Zn      0.3669205      0.4666595      0.7270737  
Zn      0.6790924      0.6537704      0.7265320  
Zn      0.6162720      0.5916748      0.7263794  
Zn      0.5540314      0.6544113      0.7271805  
Zn      0.6169357      0.7166748      0.7270737  
Zn      0.4290771      0.6537704      0.7265320  
Zn      0.3662720      0.5916748      0.7263794  
Zn      0.3040161      0.6544113      0.7271805  
Zn      0.3669205      0.7166748      0.7270737  
Zn      0.6790924      0.4037704      0.7265320  
Zn      0.6162720      0.3416595      0.7263794  
Zn      0.5540314      0.4044113      0.7271805  
Zn      0.6169357      0.4666595      0.7270737  
He       0.3561859      0.5248795      0.4065247 
He       0.3701096      0.5188370      0.4220047 
He       0.3762360      0.5327606      0.4067078 
He       0.3621979      0.5388794      0.4220276 
He       0.4871979      0.4138718      0.2970200 
He       0.4811859      0.3998795      0.2815094 
He       0.4951096      0.3938370      0.2969894 
He       0.5012436      0.4077454      0.2816925 
He       0.3566589      0.2832489      0.2969437 
He       0.3705292      0.2896271      0.2815170 
He       0.3769379      0.2758408      0.2968826 
He       0.3631287      0.2693024      0.2816849 
He       0.4881058      0.3943176      0.4067078 
He       0.4816589      0.4082870      0.4219513 
He       0.4955292      0.4146423      0.4065323 
He       0.5019379      0.4008560      0.4218979 
He       0.4214630      0.4138794      0.2303848 
He       0.4368057      0.3998337      0.2365112 
He       0.4212799      0.3938217      0.2225266 
He       0.3562393      0.3493423      0.2303009 
He       0.3701401      0.3340530      0.2364807 
He       0.3762741      0.3493958      0.2224197 
He       0.3117065      0.3942871      0.2308502 
He       0.2962723      0.4081573      0.2372208 
He       0.3116531      0.4145813      0.2234497 
He       0.3769913      0.4589157      0.2307968 
He       0.3631897      0.4743042      0.2371979 
He       0.3566895      0.4590912      0.2233887 
He       0.4872742      0.4589233      0.3414230 
He       0.4812317      0.4743805      0.3553162 
He       0.4951630      0.4591064      0.3614731 
He       0.5012894      0.4744415      0.3474274 
He       0.4881973      0.3492966      0.3622131 
He       0.4816895      0.3341064      0.3483963 
He       0.4956589      0.3493500      0.3419418 
He       0.5020142      0.3339233      0.3558121 
He       0.3117599      0.5248337      0.3615112 
He       0.2962265      0.5188293      0.3475189 
He       0.3117142      0.5327377      0.3414917 
He       0.2964020      0.5388870      0.3553925 
He       0.4214630      0.5257950      0.3419189 
He       0.4366989      0.5193253      0.3558655 
He       0.4212723      0.5332031      0.3622284 
He       0.4366608      0.5396118      0.3484344 
He       0.6061859      0.7749100      0.6565323 
He       0.6201019      0.7688599      0.6720200 
He       0.6262360      0.7827911      0.6567230 
He       0.7372131      0.6638947      0.5470352 
He       0.7312012      0.6498947      0.5315247 
He       0.7451172      0.6438522      0.5470123 
He       0.7512589      0.6577530      0.5317078 
He       0.6066589      0.5332642      0.5469742 
He       0.6205215      0.5396423      0.5315475 
He       0.6269455      0.5258560      0.5469055 
He       0.6131363      0.5193100      0.5317154 
He       0.7381287      0.6443329      0.6567230 
He       0.7316742      0.6582947      0.6719742 
He       0.7455444      0.6646500      0.6565399 
He       0.7519531      0.6508636      0.6719131 
He       0.6714783      0.6638870      0.4803925 
He       0.6868210      0.6498413      0.4865265 
He       0.6712952      0.6438293      0.4725418 
He       0.6867599      0.6577454      0.4664764 
He       0.6062393      0.5993576      0.4803085 
He       0.6201401      0.5840759      0.4864883 
He       0.6262817      0.5994110      0.4724274 
He       0.6122742      0.5838928      0.4664078 
He       0.5617218      0.6442871      0.4808731 
He       0.5462875      0.6581573      0.4872284 
He       0.5616684      0.6645813      0.4734573 
He       0.5464630      0.6507721      0.4669266 
He       0.6269989      0.7089233      0.4808044 
He       0.6132050      0.7243195      0.4872131 
He       0.6066971      0.7091064      0.4734039 
He       0.6206589      0.7243729      0.4669495 
He       0.7372971      0.7089233      0.5914307 
He       0.7312469      0.7243881      0.6053314 
He       0.7451782      0.7091064      0.6114883 
He       0.7512970      0.7244492      0.5974426 
He       0.7382050      0.5993118      0.6122284 
He       0.7316971      0.5841217      0.5984039 
He       0.7456589      0.5993652      0.5919647 
He       0.7520142      0.5839462      0.6058273 
He       0.5617752      0.7748566      0.6115189 
He       0.5462418      0.7688446      0.5975189 
He       0.5617294      0.7827530      0.5914993 
He       0.6714935      0.7758102      0.5919189 
He       0.6867218      0.7693405      0.6058731 
He       0.6713028      0.7832260      0.6122284 
He       0.3561859      0.7749100      0.6565399 
He       0.3701019      0.7688599      0.6720200 
He       0.3762360      0.7827911      0.6567230 
He       0.4951096      0.6438522      0.5470123 
He       0.5012436      0.6577530      0.5317078 
He       0.4871979      0.6638870      0.5470352 
He       0.4811859      0.6498947      0.5315247 
He       0.3566589      0.5332642      0.5469742 
He       0.3705215      0.5396423      0.5315475 
He       0.3769455      0.5258560      0.5469055 
He       0.3631363      0.5193100      0.5317154 
He       0.4955292      0.6646500      0.6565399 
He       0.5019379      0.6508636      0.6719131 
He       0.4881058      0.6443329      0.6567230 
He       0.4816589      0.6582947      0.6719742 
He       0.4214630      0.6638870      0.4803925 
He       0.4368057      0.6498413      0.4865265 
He       0.4212799      0.6438293      0.4725418 
He       0.4367447      0.6577454      0.4664764 
He       0.3562393      0.5993500      0.4803085 
He       0.3701401      0.5840759      0.4864883 
He       0.3762741      0.5994110      0.4724274 
He       0.3622665      0.5838928      0.4664078 
He       0.3117065      0.6442871      0.4808655 
He       0.2962723      0.6581573      0.4872284 
He       0.3116531      0.6645813      0.4734573 
He       0.2964401      0.6507797      0.4669266 
He       0.3769913      0.7089233      0.4808044 
He       0.3631897      0.7243195      0.4872131 
He       0.3566895      0.7091064      0.4734039 
He       0.3706512      0.7243729      0.4669495 
He       0.4951630      0.7091064      0.6114807 
He       0.5012817      0.7244415      0.5974426 
He       0.4872742      0.7089310      0.5914307 
He       0.4812317      0.7243881      0.6053238 
He       0.4956589      0.5993729      0.5919571 
He       0.5020142      0.5839386      0.6058273 
He       0.4881973      0.5993118      0.6122208 
He       0.4816895      0.5841217      0.5984116 
He       0.3117599      0.7748566      0.6115189 
He       0.2962265      0.7688446      0.5975266 
He       0.3117142      0.7827530      0.5914993 
He       0.4214630      0.7758102      0.5919189 
He       0.4366989      0.7693405      0.6058731 
He       0.4212799      0.7832260      0.6122360 
He       0.6262360      0.5327606      0.6567230 
He       0.6122055      0.5388794      0.6720428 
He       0.6061859      0.5248795      0.6565323 
He       0.6201096      0.5188370      0.6720200 
He       0.7372131      0.4138794      0.5470352 
He       0.7312012      0.3998795      0.5315247 
He       0.7451172      0.3938370      0.5470123 
He       0.7512589      0.4077454      0.5317078 
He       0.6269455      0.7758713      0.5469055 
He       0.6131363      0.7693253      0.5317154 
He       0.6066589      0.7832870      0.5469742 
He       0.7381287      0.3943176      0.6567230 
He       0.7316818      0.4082870      0.6719742 
He       0.7455444      0.4146423      0.6565399 
He       0.7519531      0.4008560      0.6719131 
He       0.6714783      0.4138870      0.4804001 
He       0.6868134      0.3998337      0.4865265 
He       0.6713028      0.3938217      0.4725418 
He       0.6867599      0.4077454      0.4664764 
He       0.6062393      0.3493423      0.4803085 
He       0.6201401      0.3340607      0.4864883 
He       0.6262741      0.3493958      0.4724274 
He       0.6122742      0.3338776      0.4664078 
He       0.5617142      0.3942871      0.4808655 
He       0.5462875      0.4081573      0.4872284 
He       0.5616684      0.4145813      0.4734573 
He       0.5464630      0.4007721      0.4669266 
He       0.6270065      0.4589157      0.4808121 
He       0.6132050      0.4743042      0.4872131 
He       0.6066971      0.4590912      0.4734039 
He       0.6206589      0.4743576      0.4669495 
He       0.7372971      0.4589233      0.5914307 
He       0.7312469      0.4743805      0.6053314 
He       0.7451782      0.4590988      0.6114807 
He       0.7512970      0.4744415      0.5974350 
He       0.7382050      0.3493042      0.6122284 
He       0.7316971      0.3341064      0.5984039 
He       0.7456589      0.3493500      0.5919571 
He       0.7520142      0.3339233      0.6058273 
He       0.5617294      0.5327377      0.5914993 
He       0.5464249      0.5388870      0.6054001 
He       0.5617676      0.5248337      0.6115189 
He       0.5462494      0.5188293      0.5975266 
He       0.6713028      0.5332031      0.6122284 
He       0.6866837      0.5396118      0.5984344 
He       0.6714935      0.5257950      0.5919189 
He       0.6867218      0.5193253      0.6058731 
He       0.3762360      0.5327606      0.6567230 
He       0.3621979      0.5388794      0.6720428 
He       0.3561859      0.5248795      0.6565399 
He       0.3701096      0.5188370      0.6720200 
He       0.4951019      0.3938370      0.5470123 
He       0.5012436      0.4077454      0.5317078 
He       0.4871979      0.4138718      0.5470352 
He       0.4811859      0.3998795      0.5315247 
He       0.3769455      0.7758713      0.5469055 
He       0.3631363      0.7693253      0.5317154 
He       0.3566589      0.7832870      0.5469742 
He       0.4955292      0.4146423      0.6565399 
He       0.5019379      0.4008560      0.6719131 
He       0.4881058      0.3943176      0.6567230 
He       0.4816589      0.4082870      0.6719666 
He       0.4212799      0.3938217      0.4725418 
He       0.4367447      0.4077454      0.4664764 
He       0.4214630      0.4138794      0.4804001 
He       0.4367981      0.3998337      0.4865265 
He       0.3762741      0.3494034      0.4724274 
He       0.3622665      0.3338852      0.4664078 
He       0.3562393      0.3493347      0.4803085 
He       0.3701401      0.3340607      0.4864883 
He       0.3116531      0.4145813      0.4734573 
He       0.2964401      0.4007797      0.4669266 
He       0.3117065      0.3942871      0.4808655 
He       0.2962723      0.4081573      0.4872284 
He       0.3566895      0.4590912      0.4734039 
He       0.3706512      0.4743576      0.4669495 
He       0.3769913      0.4589157      0.4808121 
He       0.3631897      0.4743042      0.4872131 
He       0.4951630      0.4590988      0.6114807 
He       0.5012894      0.4744415      0.5974426 
He       0.4872742      0.4589233      0.5914383 
He       0.4812317      0.4743805      0.6053314 
He       0.4956589      0.3493500      0.5919571 
He       0.5020142      0.3339233      0.6058273 
He       0.4881973      0.3492966      0.6122208 
He       0.4816895      0.3341064      0.5984116 
He       0.3117142      0.5327377      0.5914993 
He       0.2964020      0.5388870      0.6054001 
He       0.3117599      0.5248337      0.6115112 
He       0.2962265      0.5188293      0.5975266 
He       0.4212799      0.5332031      0.6122360 
He       0.4366608      0.5396118      0.5984344 
He       0.4214630      0.5257950      0.5919189 
He       0.4366913      0.5193253      0.6058655 
He       0.6201019      0.7688599      0.4220047 
He       0.6262360      0.7827911      0.4067078 
He       0.7372131      0.6638870      0.2970200 
He       0.7312012      0.6498947      0.2815094 
He       0.7451248      0.6438522      0.2969894 
He       0.7512589      0.6577530      0.2816925 
He       0.6066589      0.5332642      0.2969437 
He       0.6205292      0.5396423      0.2815170 
He       0.6269379      0.5258560      0.2968826 
He       0.6131363      0.5193100      0.2816849 
He       0.7381287      0.6443329      0.4067078 
He       0.7316742      0.6582947      0.4219589 
He       0.7455444      0.6646576      0.4065323 
He       0.7519531      0.6508636      0.4218979 
He       0.6714783      0.6638870      0.2303772 
He       0.6868210      0.6498413      0.2365112 
He       0.6712952      0.6438293      0.2225266 
He       0.6062393      0.5993576      0.2303085 
He       0.6201401      0.5840683      0.2364883 
He       0.6262741      0.5994110      0.2224197 
He       0.5617218      0.6442871      0.2308578 
He       0.5462875      0.6581573      0.2372208 
He       0.6269989      0.7089233      0.2307892 
He       0.6132050      0.7243195      0.2371979 
He       0.7372971      0.7089233      0.3414154 
He       0.7312469      0.7243881      0.3553162 
He       0.7451706      0.7091064      0.3614731 
He       0.7512970      0.7244492      0.3474274 
He       0.7382126      0.5993118      0.3622131 
He       0.7316971      0.5841217      0.3483963 
He       0.7456665      0.5993729      0.3419495 
He       0.7520142      0.5839462      0.3558121 
He       0.5462418      0.7688446      0.3475189 
He       0.5617294      0.7827530      0.3414917 
He       0.6714935      0.7758102      0.3419189 
He       0.6867218      0.7693405      0.3558655 
He       0.6713028      0.7832260      0.3622284 
He       0.3561859      0.7749100      0.4065247 
He       0.3701019      0.7688599      0.4220047 
He       0.3762360      0.7827911      0.4067078 
He       0.4951096      0.6438522      0.2969894 
He       0.5012436      0.6577530      0.2816925 
He       0.4871979      0.6638870      0.2970200 
He       0.4811859      0.6498947      0.2815094 
He       0.3769379      0.5258560      0.2968826 
He       0.3631363      0.5193100      0.2816849 
He       0.3566589      0.5332642      0.2969437 
He       0.3705292      0.5396423      0.2815170 
He       0.4955292      0.6646576      0.4065323 
He       0.5019379      0.6508636      0.4218979 
He       0.4881058      0.6443329      0.4067078 
He       0.4816589      0.6582947      0.4219589 
He       0.4214630      0.6638870      0.2303772 
He       0.4368057      0.6498337      0.2365112 
He       0.4212799      0.6438293      0.2225266 
He       0.3562393      0.5993576      0.2303009 
He       0.3701401      0.5840683      0.2364883 
He       0.3762741      0.5994110      0.2224197 
He       0.3117065      0.6442871      0.2308502 
He       0.2962723      0.6581573      0.2372208 
He       0.3116531      0.6645813      0.2234497 
He       0.3769913      0.7089233      0.2307892 
He       0.3631897      0.7243195      0.2371979 
He       0.3566895      0.7091064      0.2233887 
He       0.4951630      0.7091064      0.3614731 
He       0.5012817      0.7244415      0.3474274 
He       0.4872742      0.7089310      0.3414154 
He       0.4812317      0.7243881      0.3553162 
He       0.4956589      0.5993729      0.3419495 
He       0.5020142      0.5839386      0.3558121 
He       0.4881973      0.5993118      0.3622131 
He       0.4816895      0.5841217      0.3483963 
He       0.3117676      0.7748566      0.3615112 
He       0.2962265      0.7688522      0.3475189 
He       0.3117142      0.7827530      0.3414917 
He       0.4214630      0.7758102      0.3419189 
He       0.4366989      0.7693405      0.3558655 
He       0.4212723      0.7832260      0.3622284 
He       0.6262360      0.5327606      0.4067078 
He       0.6122055      0.5388794      0.4220276 
He       0.6061859      0.5248795      0.4065170 
He       0.6201096      0.5188370      0.4220047 
He       0.7372131      0.4138718      0.2970200 
He       0.7312012      0.3998795      0.2815094 
He       0.7451248      0.3938370      0.2969894 
He       0.7512589      0.4077454      0.2816925 
He       0.6066589      0.2832489      0.2969437 
He       0.6205292      0.2896271      0.2815170 
He       0.6269379      0.2758408      0.2968826 
He       0.7381287      0.3943176      0.4067078 
He       0.7316818      0.4082870      0.4219589 
He       0.7455444      0.4146423      0.4065323 
He       0.6714783      0.4138870      0.2303848 
He       0.6868210      0.3998337      0.2365112 
He       0.6713028      0.3938217      0.2225266 
He       0.6062393      0.3493423      0.2303085 
He       0.6201401      0.3340530      0.2364807 
He       0.6262741      0.3493958      0.2224197 
He       0.5617142      0.3942871      0.2308502 
He       0.5462875      0.4081573      0.2372208 
He       0.5616684      0.4145813      0.2234421 
He       0.6270065      0.4589157      0.2307968 
He       0.6132050      0.4743042      0.2371979 
He       0.6066971      0.4590912      0.2233887 
He       0.7372971      0.4589233      0.3414230 
He       0.7312469      0.4743805      0.3553162 
He       0.7451706      0.4591064      0.3614731 
He       0.7512970      0.4744415      0.3474197 
He       0.7382126      0.3492966      0.3622131 
He       0.7316971      0.3341064      0.3483963 
He       0.7456665      0.3493500      0.3419495 
He       0.7520142      0.3339233      0.3558121 
He       0.5617294      0.5327377      0.3414917 
He       0.5464249      0.5388870      0.3553925 
He       0.5617752      0.5248337      0.3615112 
He       0.5462494      0.5188293      0.3475189 
He       0.6713028      0.5332031      0.3622284 
He       0.6866837      0.5396118      0.3484344 
He       0.6714935      0.5257950      0.3419189 
He       0.6867218      0.5193176      0.3558655 
He       0.6262360      0.2827530      0.6567154 
He       0.6121979      0.2888718      0.6720505 
He       0.6061859      0.2748795      0.6565323 
He       0.6201096      0.2688293      0.6720200 
He       0.5617294      0.2827225      0.5914993 
He       0.5464249      0.2888718      0.6054001 
He       0.5617752      0.2748260      0.6115189 
He       0.5462418      0.2688141      0.5975189 
He       0.6713028      0.2831879      0.6122284 
He       0.6866837      0.2895966      0.5984344 
He       0.6714935      0.2757797      0.5919189 
He       0.6867218      0.2693100      0.6058731 
He       0.3762360      0.2827530      0.6567154 
He       0.3621979      0.2888718      0.6720505 
He       0.3561859      0.2748795      0.6565399 
He       0.3701096      0.2688293      0.6720200 
He       0.3117142      0.2827225      0.5914993 
He       0.2964020      0.2888641      0.6054001 
He       0.3117599      0.2748260      0.6115189 
He       0.2962265      0.2688141      0.5975266 
He       0.4212799      0.2831879      0.6122360 
He       0.4366608      0.2895966      0.5984344 
He       0.4214630      0.2757797      0.5919189 
He       0.4366989      0.2693100      0.6058731 
He       0.6066589      0.2832489      0.5469742 
He       0.6205292      0.2896271      0.5315475 
He       0.6269379      0.2758408      0.5469055 
He       0.6131287      0.2693024      0.5317154 
He       0.3566589      0.2832489      0.5469742 
He       0.3705292      0.2896271      0.5315475 
He       0.3769455      0.2758408      0.5469055 
He       0.3631287      0.2693024      0.5317154 
He       0.6262360      0.2827530      0.4067001 
He       0.6121979      0.2888718      0.4220352 
He       0.6061859      0.2748795      0.4065170 
He       0.6201096      0.2688293      0.4220047 
He       0.5617294      0.2827225      0.3414917 
He       0.5464172      0.2888718      0.3554001 
He       0.5617752      0.2748260      0.3615189 
He       0.5462418      0.2688141      0.3475189 
He       0.6713028      0.2831879      0.3622284 
He       0.6866837      0.2895966      0.3484344 
He       0.6714935      0.2757797      0.3419189 
He       0.6867218      0.2693100      0.3558655 
He       0.3762360      0.2827530      0.4067001 
He       0.3621979      0.2888718      0.4220352 
He       0.3561859      0.2748795      0.4065247 
He       0.3701096      0.2688293      0.4220047 
He       0.3117142      0.2827225      0.3414917 
He       0.2964020      0.2888641      0.3553925 
He       0.3117676      0.2748260      0.3615112 
He       0.2962265      0.2688217      0.3475189 
He       0.4212723      0.2831879      0.3622284 
He       0.4366608      0.2895966      0.3484344 
He       0.4214630      0.2757797      0.3419189 
He       0.4366989      0.2693100      0.3558655 
He       0.2450943      0.6438522      0.5470123 
He       0.2512283      0.6577530      0.5317078 
He       0.2371826      0.6638947      0.5470352 
He       0.2455139      0.6646500      0.6565399 
He       0.2519226      0.6508636      0.6719131 
He       0.2380981      0.6443329      0.6567230 
He       0.2451401      0.7091064      0.6114883 
He       0.2512665      0.7244492      0.5974426 
He       0.2372665      0.7089233      0.5914307 
He       0.2456284      0.5993652      0.5919647 
He       0.2519836      0.5839462      0.6058273 
He       0.2381744      0.5993118      0.6122284 
He       0.2450943      0.3938370      0.5470123 
He       0.2512283      0.4077454      0.5317078 
He       0.2371826      0.4138794      0.5470352 
He       0.2455139      0.4146423      0.6565399 
He       0.2519226      0.4008560      0.6719131 
He       0.2380981      0.3943176      0.6567230 
He       0.2451401      0.4590988      0.6114807 
He       0.2512741      0.4744415      0.5974350 
He       0.2372665      0.4589233      0.5914383 
He       0.2456360      0.3493500      0.5919571 
He       0.2519836      0.3339233      0.6058273 
He       0.2381744      0.3493042      0.6122284 
He       0.2450943      0.6438522      0.2969894 
He       0.2512283      0.6577530      0.2816925 
He       0.2371902      0.6638870      0.2970200 
He       0.2455139      0.6646576      0.4065323 
He       0.2519226      0.6508636      0.4218979 
He       0.2380981      0.6443329      0.4067078 
He       0.2451401      0.7091064      0.3614731 
He       0.2512665      0.7244492      0.3474274 
He       0.2372665      0.7089233      0.3414154 
He       0.2456360      0.5993729      0.3419495 
He       0.2519836      0.5839462      0.3558121 
He       0.2381821      0.5993118      0.3622131 
He       0.2450943      0.3938370      0.2969894 
He       0.2512283      0.4077454      0.2816925 
He       0.2371902      0.4138718      0.2970200 
He       0.2455139      0.4146423      0.4065323 
He       0.2519226      0.4008560      0.4218979 
He       0.2451401      0.4590988      0.3614731 
He       0.2512665      0.4744415      0.3474197 
He       0.2372665      0.4589233      0.3414230 
He       0.2456360      0.3493500      0.3419495 
He       0.2519836      0.3339233      0.3558121 
He       0.3769379      0.7758713      0.2968826 
He       0.3631363      0.7693253      0.2816849 
He       0.3566589      0.7832870      0.2969437 
He       0.6269379      0.7758713      0.2968826 
He       0.6131363      0.7693253      0.2816849 
He       0.6066589      0.7832870      0.2969437 
He       0.4212799      0.3938217      0.7225571 
He       0.4367371      0.4077454      0.7164917 
He       0.4214630      0.4138794      0.7304077 
He       0.4368057      0.3998337      0.7365417 
He       0.3762741      0.3494034      0.7224579 
He       0.3622665      0.3338852      0.7164383 
He       0.3562393      0.3493423      0.7303314 
He       0.3701401      0.3340530      0.7365112 
He       0.3116531      0.4145813      0.7234726 
He       0.2964401      0.4007721      0.7169418 
He       0.3117065      0.3942871      0.7308807 
He       0.2962723      0.4081573      0.7372437 
He       0.3566895      0.4590912      0.7234192 
He       0.3706512      0.4743576      0.7169647 
He       0.3769913      0.4589157      0.7308273 
He       0.3631897      0.4743042      0.7372208 
He       0.6712952      0.6438293      0.7225494 
He       0.6867523      0.6577454      0.7164917 
He       0.6714783      0.6638870      0.7304077 
He       0.6868210      0.6498337      0.7365417 
He       0.6262817      0.5994110      0.7224579 
He       0.6122742      0.5838928      0.7164383 
He       0.6062393      0.5993576      0.7303391 
He       0.6201401      0.5840683      0.7365112 
He       0.5616684      0.6645813      0.7234726 
He       0.5464630      0.6507721      0.7169418 
He       0.5617218      0.6442871      0.7308807 
He       0.5462875      0.6581573      0.7372437 
He       0.6066971      0.7091064      0.7234192 
He       0.6206589      0.7243729      0.7169647 
He       0.6269989      0.7089233      0.7308197 
He       0.6132050      0.7243195      0.7372208 
He       0.4212799      0.6438293      0.7225571 
He       0.4367371      0.6577454      0.7164917 
He       0.4214630      0.6638870      0.7304077 
He       0.4368057      0.6498337      0.7365417 
He       0.3762741      0.5994110      0.7224579 
He       0.3622665      0.5838928      0.7164383 
He       0.3562393      0.5993576      0.7303314 
He       0.3701401      0.5840683      0.7365112 
He       0.3116531      0.6645813      0.7234726 
He       0.2964401      0.6507721      0.7169418 
He       0.3117065      0.6442871      0.7308807 
He       0.3566895      0.7091064      0.7234192 
He       0.3706512      0.7243729      0.7169647 
He       0.3769913      0.7089233      0.7308197 
He       0.3631897      0.7243195      0.7372208 
He       0.6713028      0.3938217      0.7225571 
He       0.6867523      0.4077454      0.7164917 
He       0.6714783      0.4138870      0.7304153 
He       0.6868210      0.3998337      0.7365417 
He       0.6262817      0.3493958      0.7224579 
He       0.6122742      0.3338776      0.7164383 
He       0.6062393      0.3493423      0.7303391 
He       0.6201401      0.3340530      0.7365112 
He       0.5616684      0.4145813      0.7234726 
He       0.5464630      0.4007721      0.7169418 
He       0.5617142      0.3942871      0.7308807 
He       0.5462875      0.4081573      0.7372437 
He       0.6066971      0.4590912      0.7234192 
He       0.6206589      0.4743576      0.7169647 
He       0.6270065      0.4589157      0.7308197 
He       0.6132050      0.4743042      0.7372284 
He       0.4368515      0.4075699      0.2164764 
He       0.3624725      0.3339005      0.2163162 
He       0.2964020      0.4006042      0.2170105 
He       0.3707733      0.4742584      0.2169037 
He       0.6120148      0.7888718      0.6719971 
He       0.5463104      0.7887573      0.6055603 
He       0.6867523      0.7896271      0.5985641 
He       0.3620148      0.7888718      0.6719971 
He       0.2962952      0.7887573      0.6055603 
He       0.4367142      0.7896347      0.5985641 
He       0.6203384      0.7897186      0.5315399 
He       0.3703461      0.7897186      0.5315399 
He       0.6147232      0.7886124      0.4226074 
He       0.6081390      0.7732391      0.4059753 
He       0.6868591      0.6575546      0.2164688 
He       0.6124649      0.5839157      0.2163162 
He       0.5457993      0.6489868      0.2190247 
He       0.5623016      0.6641006      0.2260895 
He       0.6071854      0.7084351      0.2258377 
He       0.6224670      0.7249756      0.2189941 
He       0.5622864      0.7730179      0.3594284 
He       0.5458450      0.7885208      0.3529434 
He       0.6867523      0.7896271      0.3485870 
He       0.3620148      0.7888718      0.4219818 
He       0.4368591      0.6575546      0.2164764 
He       0.3624725      0.5839157      0.2163162 
He       0.2964020      0.6505966      0.2170105 
He       0.3707733      0.7242737      0.2169113 
He       0.2963028      0.7887497      0.3555756 
He       0.4367142      0.7896347      0.3485794 
He       0.6129608      0.2694321      0.2815933 
He       0.7519608      0.4009399      0.4219284 
He       0.6868591      0.4075699      0.2164764 
He       0.6124649      0.3339005      0.2163162 
He       0.5464249      0.4005966      0.2170029 
He       0.6207962      0.4742508      0.2169037 
He       0.2310638      0.6500015      0.5316086 
He       0.2315903      0.6584167      0.6718369 
He       0.2312317      0.7244873      0.6051712 
He       0.2317734      0.5840225      0.5982971 
He       0.2310638      0.3999863      0.5316086 
He       0.2315903      0.4083939      0.6718369 
He       0.2312469      0.4745026      0.6051636 
He       0.2317734      0.3340225      0.5982895 
He       0.2310562      0.6500015      0.2815933 
He       0.2315903      0.6584167      0.4218216 
He       0.2312317      0.7244949      0.3551483 
He       0.2317810      0.5840302      0.3482666 
He       0.2310638      0.3999863      0.2816010 
He       0.2405624      0.3948059      0.4060059 
He       0.2336731      0.4100647      0.4225693 
He       0.2312393      0.4745026      0.3551407 
He       0.2337952      0.3334198      0.3466034 
He       0.2408142      0.3499222      0.3617554 
He       0.3703384      0.7897186      0.2815094 
He       0.6203384      0.7897186      0.2815094 
He       0.2963181      0.6579819      0.7373428 
H3        0.3735123      0.5064621      0.3780136
H3        0.3975143      0.4962616      0.3806076
H3        0.3907166      0.5079193      0.3582077
H3        0.4707794      0.3974075      0.3297501
H3        0.4588165      0.3767929      0.3191452
H3        0.4675674      0.3754578      0.3438644
H3        0.3721161      0.2991028      0.3300018
H3        0.3928223      0.3121948      0.3209991
H3        0.3933640      0.3021011      0.3451996
H3        0.3599167      0.3822556      0.4561081
H3        0.3392715      0.3717499      0.4440536
H3        0.3379669      0.3964081      0.4529572
H3        0.3729248      0.4281082      0.4556656
H3        0.3951721      0.4353561      0.4439697
H3        0.3930283      0.4112549      0.4539108
H3        0.3751144      0.3752518      0.2507935
H3        0.3999710      0.3753510      0.2590942
H3        0.3899231      0.3968048      0.2481461
H3        0.3599167      0.4309998      0.2497025
H3        0.3357239      0.4305038      0.2597961
H3        0.3447189      0.4097595      0.2467041
H3        0.2629013      0.4276047      0.3444672
H3        0.2738647      0.4375687      0.3229141
H3        0.2655106      0.4127121      0.3229141
H3        0.3445282      0.5084610      0.3451157
H3        0.3340225      0.4964523      0.3244095
H3        0.3586655      0.5053101      0.3231583
H3        0.4686737      0.4306641      0.3588104
H3        0.4586639      0.4327545      0.3829193
H3        0.4704208      0.4105682      0.3757095
H3        0.3376694      0.3031464      0.3603134
H3        0.3376694      0.3115082      0.3852081
H3        0.3591690      0.3006058      0.3752670
H3        0.4841690      0.4256058      0.2502518
H3        0.4626236      0.4365082      0.2602005
H3        0.4626694      0.4281616      0.2353439
H3        0.2484512      0.3815613      0.2528992
H3        0.2723694      0.3712463      0.2557983
H3        0.2658615      0.3828125      0.2332535
H3        0.3457794      0.5224533      0.4548111
H3        0.3338165      0.5018082      0.4442139
H3        0.3426132      0.5005188      0.4689102
H3        0.4837265      0.3803558      0.4482040
H3        0.4590607      0.3714523      0.4494095
H3        0.4694672      0.3834610      0.4701157
H3        0.4848709      0.5072556      0.3311081
H3        0.4642715      0.4967041      0.3190536
H3        0.4629211      0.5213623      0.3279572
H3        0.2479095      0.3031082      0.3306656
H3        0.2701111      0.3104019      0.3188934
H3        0.2680511      0.2862549      0.3289108
H3        0.2500610      0.5002670      0.3758087
H3        0.2749557      0.5003510      0.3841705
H3        0.2649078      0.5218048      0.3731613
H3        0.4849167      0.3059998      0.3747025
H3        0.4607239      0.3055038      0.3848114
H3        0.4697189      0.2847595      0.3717041
H3        0.3879166      0.3026047      0.4694672
H3        0.3989258      0.3125534      0.4479523
H3        0.3905258      0.2876968      0.4479141
H3        0.3864746      0.5074158      0.2323608
H3        0.3995132      0.4983673      0.2530441
H3        0.3894653      0.5225601      0.2536926
H3        0.3436737      0.3056946      0.2338409
H3        0.3336639      0.3076935      0.2579422
H3        0.3454208      0.2855072      0.2506485
H3        0.2683029      0.4270630      0.4701996
H3        0.2678070      0.4372101      0.4460144
H3        0.2471161      0.4241180      0.4550018
H3        0.6235275      0.7564774      0.6280136
H3        0.6475296      0.7462769      0.6306229
H3        0.6407318      0.7579346      0.6082230
H3        0.7207947      0.6474228      0.5797653
H3        0.7088470      0.6268234      0.5691757
H3        0.7175827      0.6254730      0.5938644
H3        0.6221313      0.5491180      0.5800171
H3        0.6428375      0.5622101      0.5710297
H3        0.6433792      0.5521164      0.5952148
H3        0.5145264      0.6475754      0.6287231
H3        0.5245743      0.6233215      0.6280746
H3        0.5114365      0.6324158      0.6074142
H3        0.6099319      0.6322708      0.7061386
H3        0.5892715      0.6217651      0.6940842
H3        0.5879745      0.6464233      0.7029877
H3        0.6229248      0.6781158      0.7056808
H3        0.6451721      0.6853714      0.6939850
H3        0.6430283      0.6612701      0.7039261
H3        0.6251297      0.6252670      0.5008240
H3        0.6499863      0.6253662      0.5091248
H3        0.6399384      0.6468201      0.4981766
H3        0.6099319      0.6810150      0.4997177
H3        0.5857239      0.6805191      0.5098114
H3        0.5947342      0.6597672      0.4967194
H3        0.5129318      0.6776199      0.5944672
H3        0.5238800      0.6875687      0.5729218
H3        0.5155258      0.6627121      0.5729218
H3        0.5945282      0.7584763      0.5951157
H3        0.5840378      0.7464828      0.5744247
H3        0.6086807      0.7553253      0.5731735
H3        0.7186890      0.6806641      0.6088104
H3        0.7086945      0.6827698      0.6329193
H3        0.7204361      0.6605682      0.6257172
H3        0.5876846      0.5531616      0.6103134
H3        0.5876846      0.5615234      0.6352234
H3        0.6091843      0.5506210      0.6252670
H3        0.7341995      0.6756210      0.5002670
H3        0.7126389      0.6865234      0.5102234
H3        0.7126846      0.6781616      0.4853592
H3        0.4984818      0.6315613      0.5029144
H3        0.5223846      0.6212769      0.5058289
H3        0.5158768      0.6328125      0.4832535
H3        0.5957794      0.7724838      0.7048264
H3        0.5838318      0.7518234      0.6942291
H3        0.5926285      0.7505264      0.7189255
H3        0.7337418      0.6303711      0.6982346
H3        0.7090912      0.6214676      0.6994247
H3        0.7194977      0.6334763      0.7201309
H3        0.7348862      0.7572861      0.5811234
H3        0.7142868      0.7467346      0.5690689
H3        0.7129364      0.7713776      0.5779724
H3        0.4979248      0.5531158      0.5806656
H3        0.5201263      0.5604172      0.5689240
H3        0.5180817      0.5362549      0.5789108
H3        0.5000763      0.7502823      0.6258240
H3        0.5249863      0.7503815      0.6341705
H3        0.5149384      0.7718353      0.6231766
H3        0.7349472      0.5560150      0.6247177
H3        0.7107391      0.5555191      0.6348114
H3        0.7197495      0.5347595      0.6217194
H3        0.6379318      0.5526199      0.7194824
H3        0.6489258      0.5625687      0.6979828
H3        0.6405258      0.5377121      0.6979218
H3        0.6364746      0.7574310      0.4823608
H3        0.6495285      0.7483826      0.5030746
H3        0.6394806      0.7725830      0.5037231
H3        0.5936737      0.5557251      0.4838562
H3        0.5836792      0.5577240      0.5079727
H3        0.5954208      0.5355072      0.5006790
H3        0.5183334      0.6770782      0.7202301
H3        0.5178375      0.6872101      0.6960297
H3        0.4971313      0.6741180      0.7050323
H3        0.3735123      0.7564774      0.6280136
H3        0.3975143      0.7462769      0.6306229
H3        0.3907166      0.7579346      0.6082230
H3        0.4707794      0.6474228      0.5797653
H3        0.4588165      0.6268234      0.5691757
H3        0.4675674      0.6254730      0.5938644
H3        0.3721161      0.5491180      0.5800171
H3        0.3928223      0.5622101      0.5710297
H3        0.3933640      0.5521164      0.5952148
H3        0.2645111      0.6475754      0.6287231
H3        0.2745590      0.6233215      0.6280746
H3        0.2614059      0.6324158      0.6074142
H3        0.3599167      0.6322708      0.7061386
H3        0.3392715      0.6217651      0.6940842
H3        0.3379669      0.6464233      0.7029877
H3        0.3729248      0.6781158      0.7056808
H3        0.3951721      0.6853714      0.6939850
H3        0.3930283      0.6612701      0.7039261
H3        0.3751144      0.6252670      0.5008240
H3        0.3999710      0.6253662      0.5091248
H3        0.3899231      0.6468201      0.4981766
H3        0.3599167      0.6810150      0.4997177
H3        0.3357239      0.6805191      0.5098114
H3        0.3447189      0.6597672      0.4967194
H3        0.2629013      0.6776199      0.5944672
H3        0.2738647      0.6875687      0.5729218
H3        0.2655106      0.6627121      0.5729218
H3        0.3445282      0.7584763      0.5951157
H3        0.3340225      0.7464828      0.5744247
H3        0.3586655      0.7553253      0.5731735
H3        0.4686737      0.6806641      0.6088104
H3        0.4586639      0.6827698      0.6329193
H3        0.4704208      0.6605682      0.6257172
H3        0.3376694      0.5531616      0.6103134
H3        0.3376694      0.5615234      0.6352234
H3        0.3591690      0.5506210      0.6252670
H3        0.4841690      0.6756210      0.5002670
H3        0.4626236      0.6865234      0.5102234
H3        0.4626694      0.6781616      0.4853592
H3        0.2484512      0.6315613      0.5029144
H3        0.2723694      0.6212769      0.5058289
H3        0.2658615      0.6328125      0.4832535
H3        0.3457794      0.7724838      0.7048264
H3        0.3338165      0.7518234      0.6942291
H3        0.3426132      0.7505264      0.7189255
H3        0.4837265      0.6303711      0.6982346
H3        0.4590607      0.6214676      0.6994247
H3        0.4694672      0.6334763      0.7201309
H3        0.4848709      0.7572861      0.5811234
H3        0.4642715      0.7467346      0.5690689
H3        0.4629211      0.7713776      0.5779724
H3        0.2479095      0.5531158      0.5806656
H3        0.2701111      0.5604172      0.5689240
H3        0.2680511      0.5362549      0.5789108
H3        0.2500610      0.7502823      0.6258240
H3        0.2749557      0.7503815      0.6341705
H3        0.2649078      0.7718353      0.6231766
H3        0.4849167      0.5560150      0.6247177
H3        0.4607239      0.5555191      0.6348114
H3        0.4697189      0.5347595      0.6217194
H3        0.3879166      0.5526199      0.7194824
H3        0.3989258      0.5625687      0.6979828
H3        0.3905258      0.5377121      0.6979218
H3        0.3864746      0.7574310      0.4823608
H3        0.3995132      0.7483826      0.5030746
H3        0.3894653      0.7725830      0.5037231
H3        0.3436737      0.5557251      0.4838562
H3        0.3336639      0.5577240      0.5079727
H3        0.3454208      0.5355072      0.5006790
H3        0.2683029      0.6770782      0.7202301
H3        0.2678070      0.6872101      0.6960297
H3        0.2471161      0.6741180      0.7050323
H3        0.6235275      0.5064621      0.6280136
H3        0.6475296      0.4962616      0.6306229
H3        0.6407318      0.5079193      0.6082230
H3        0.7207947      0.3974075      0.5797653
H3        0.7088470      0.3767929      0.5691757
H3        0.7175827      0.3754578      0.5938644
H3        0.6221313      0.2991028      0.5800171
H3        0.6428375      0.3121948      0.5710297
H3        0.6433792      0.3021011      0.5952148
H3        0.5145264      0.3975601      0.6287231
H3        0.5245743      0.3732910      0.6280746
H3        0.5114365      0.3824158      0.6074142
H3        0.6099319      0.3822556      0.7061386
H3        0.5892715      0.3717499      0.6940842
H3        0.5879745      0.3964081      0.7029877
H3        0.6229248      0.4281082      0.7056808
H3        0.6451721      0.4353561      0.6939850
H3        0.6430283      0.4112549      0.7039261
H3        0.6251297      0.3752518      0.5008240
H3        0.6499863      0.3753510      0.5091248
H3        0.6399384      0.3968048      0.4981766
H3        0.6099319      0.4309998      0.4997177
H3        0.5857239      0.4305038      0.5098114
H3        0.5947342      0.4097595      0.4967194
H3        0.5129318      0.4276047      0.5944672
H3        0.5238800      0.4375687      0.5729218
H3        0.5155258      0.4127121      0.5729218
H3        0.5945282      0.5084610      0.5951157
H3        0.5840378      0.4964523      0.5744247
H3        0.6086807      0.5053101      0.5731735
H3        0.7186890      0.4306641      0.6088104
H3        0.7086945      0.4327545      0.6329193
H3        0.7204361      0.4105682      0.6257172
H3        0.5876846      0.3031464      0.6103134
H3        0.5876846      0.3115082      0.6352234
H3        0.6091843      0.3006058      0.6252670
H3        0.7341995      0.4256058      0.5002670
H3        0.7126389      0.4365082      0.5102234
H3        0.7126846      0.4281616      0.4853592
H3        0.4984818      0.3815613      0.5029144
H3        0.5223846      0.3712463      0.5058289
H3        0.5158768      0.3828125      0.4832535
H3        0.5957794      0.5224533      0.7048264
H3        0.5838318      0.5018082      0.6942291
H3        0.5926285      0.5005188      0.7189255
H3        0.7337418      0.3803558      0.6982346
H3        0.7090912      0.3714523      0.6994247
H3        0.7194977      0.3834610      0.7201309
H3        0.7348862      0.5072556      0.5811234
H3        0.7142868      0.4967041      0.5690689
H3        0.7129364      0.5213623      0.5779724
H3        0.4979248      0.3031082      0.5806656
H3        0.5201263      0.3104019      0.5689240
H3        0.5180817      0.2862549      0.5789108
H3        0.5000763      0.5002670      0.6258240
H3        0.5249863      0.5003510      0.6341705
H3        0.5149384      0.5218048      0.6231766
H3        0.7349472      0.3059998      0.6247177
H3        0.7107391      0.3055038      0.6348114
H3        0.7197495      0.2847595      0.6217194
H3        0.6379318      0.3026047      0.7194824
H3        0.6489258      0.3125534      0.6979828
H3        0.6405258      0.2876968      0.6979218
H3        0.6364746      0.5074158      0.4823608
H3        0.6495285      0.4983673      0.5030746
H3        0.6394806      0.5225601      0.5037231
H3        0.5936737      0.3056946      0.4838562
H3        0.5836792      0.3076935      0.5079727
H3        0.5954208      0.2855072      0.5006790
H3        0.5183334      0.4270630      0.7202301
H3        0.5178375      0.4372101      0.6960297
H3        0.4971313      0.4241180      0.7050323
H3        0.3735123      0.5064621      0.6280136
H3        0.3975143      0.4962616      0.6306229
H3        0.3907166      0.5079193      0.6082230
H3        0.4707794      0.3974075      0.5797653
H3        0.4588165      0.3767929      0.5691757
H3        0.4675674      0.3754578      0.5938644
H3        0.3721161      0.2991028      0.5800171
H3        0.3928223      0.3121948      0.5710297
H3        0.3933640      0.3021011      0.5952148
H3        0.2645111      0.3975601      0.6287231
H3        0.2745590      0.3732910      0.6280746
H3        0.2614059      0.3824158      0.6074142
H3        0.3599167      0.3822556      0.7061386
H3        0.3392715      0.3717499      0.6940842
H3        0.3379669      0.3964081      0.7029877
H3        0.3729248      0.4281082      0.7056808
H3        0.3951721      0.4353561      0.6939850
H3        0.3930283      0.4112549      0.7039261
H3        0.3751144      0.3752518      0.5008240
H3        0.3999710      0.3753510      0.5091248
H3        0.3899231      0.3968048      0.4981766
H3        0.3599167      0.4309998      0.4997177
H3        0.3357239      0.4305038      0.5098114
H3        0.3447189      0.4097595      0.4967194
H3        0.2629013      0.4276047      0.5944672
H3        0.2738647      0.4375687      0.5729218
H3        0.2655106      0.4127121      0.5729218
H3        0.3445282      0.5084610      0.5951157
H3        0.3340225      0.4964523      0.5744247
H3        0.3586655      0.5053101      0.5731735
H3        0.4686737      0.4306641      0.6088104
H3        0.4586639      0.4327545      0.6329193
H3        0.4704208      0.4105682      0.6257172
H3        0.3376694      0.3031464      0.6103134
H3        0.3376694      0.3115082      0.6352234
H3        0.3591690      0.3006058      0.6252670
H3        0.4841690      0.4256058      0.5002670
H3        0.4626236      0.4365082      0.5102234
H3        0.4626694      0.4281616      0.4853592
H3        0.2484512      0.3815613      0.5029144
H3        0.2723694      0.3712463      0.5058289
H3        0.2658615      0.3828125      0.4832535
H3        0.3457794      0.5224533      0.7048264
H3        0.3338165      0.5018082      0.6942291
H3        0.3426132      0.5005188      0.7189255
H3        0.4837265      0.3803558      0.6982346
H3        0.4590607      0.3714523      0.6994247
H3        0.4694672      0.3834610      0.7201309
H3        0.4848709      0.5072556      0.5811234
H3        0.4642715      0.4967041      0.5690689
H3        0.4629211      0.5213623      0.5779724
H3        0.2479095      0.3031082      0.5806656
H3        0.2701111      0.3104019      0.5689240
H3        0.2680511      0.2862549      0.5789108
H3        0.2500610      0.5002670      0.6258240
H3        0.2749557      0.5003510      0.6341705
H3        0.2649078      0.5218048      0.6231766
H3        0.4849167      0.3059998      0.6247177
H3        0.4607239      0.3055038      0.6348114
H3        0.4697189      0.2847595      0.6217194
H3        0.3879166      0.3026047      0.7194824
H3        0.3989258      0.3125534      0.6979828
H3        0.3905258      0.2876968      0.6979218
H3        0.3864746      0.5074158      0.4823608
H3        0.3995132      0.4983673      0.5030746
H3        0.3894653      0.5225601      0.5037231
H3        0.3436737      0.3056946      0.4838562
H3        0.3336639      0.3076935      0.5079727
H3        0.3454208      0.2855072      0.5006790
H3        0.2683029      0.4270630      0.7202301
H3        0.2678070      0.4372101      0.6960297
H3        0.2471161      0.4241180      0.7050323
H3        0.6235275      0.7564774      0.3780136
H3        0.6475296      0.7462769      0.3806076
H3        0.6407318      0.7579346      0.3582077
H3        0.7207947      0.6474228      0.3297501
H3        0.7088470      0.6268234      0.3191452
H3        0.7175827      0.6254730      0.3438644
H3        0.6221313      0.5491180      0.3300018
H3        0.6428375      0.5622101      0.3209991
H3        0.6433792      0.5521164      0.3451996
H3        0.5145264      0.6475754      0.3787079
H3        0.5245743      0.6233215      0.3780594
H3        0.5114365      0.6324158      0.3574142
H3        0.6099319      0.6322708      0.4561081
H3        0.5892715      0.6217651      0.4440536
H3        0.5879745      0.6464233      0.4529572
H3        0.6229248      0.6781158      0.4556656
H3        0.6451721      0.6853714      0.4439697
H3        0.6430283      0.6612701      0.4539108
H3        0.6251297      0.6252670      0.2507935
H3        0.6499863      0.6253662      0.2590942
H3        0.6399384      0.6468201      0.2481461
H3        0.5129318      0.6776199      0.3444672
H3        0.5238800      0.6875687      0.3229141
H3        0.5155258      0.6627121      0.3229141
H3        0.5945282      0.7584763      0.3451157
H3        0.5840378      0.7464828      0.3244095
H3        0.6086807      0.7553253      0.3231583
H3        0.7186890      0.6806641      0.3588104
H3        0.7086945      0.6827698      0.3829193
H3        0.7204361      0.6605682      0.3757095
H3        0.5876846      0.5531616      0.3603134
H3        0.5876846      0.5615234      0.3852081
H3        0.6091843      0.5506210      0.3752670
H3        0.7341995      0.6756210      0.2502518
H3        0.7126389      0.6865234      0.2602005
H3        0.7126846      0.6781616      0.2353439
H3        0.4984818      0.6315613      0.2528992
H3        0.5223846      0.6212769      0.2557983
H3        0.5158768      0.6328125      0.2332535
H3        0.5957794      0.7724838      0.4548111
H3        0.5838318      0.7518234      0.4442139
H3        0.5926285      0.7505264      0.4689102
H3        0.7337418      0.6303711      0.4482040
H3        0.7090912      0.6214676      0.4494095
H3        0.7194977      0.6334763      0.4701157
H3        0.7348862      0.7572861      0.3311081
H3        0.7142868      0.7467346      0.3190536
H3        0.7129364      0.7713776      0.3279572
H3        0.4979248      0.5531158      0.3306656
H3        0.5201263      0.5604172      0.3188934
H3        0.5180817      0.5362549      0.3289108
H3        0.5000763      0.7502823      0.3758087
H3        0.5249863      0.7503815      0.3841705
H3        0.5149384      0.7718353      0.3731613
H3        0.7349472      0.5560150      0.3747025
H3        0.7107391      0.5555191      0.3848114
H3        0.7197495      0.5347595      0.3717041
H3        0.6379318      0.5526199      0.4694672
H3        0.6489258      0.5625687      0.4479523
H3        0.6405258      0.5377121      0.4479141
H3        0.6364746      0.7574310      0.2323608
H3        0.6495285      0.7483826      0.2530441
H3        0.6394806      0.7725830      0.2536926
H3        0.5936737      0.5557251      0.2338409
H3        0.5836792      0.5577240      0.2579422
H3        0.5954208      0.5355072      0.2506485
H3        0.5183334      0.6770782      0.4701996
H3        0.5178375      0.6872101      0.4460144
H3        0.4971313      0.6741180      0.4550018
H3        0.3735123      0.7564774      0.3780136
H3        0.3975143      0.7462769      0.3806076
H3        0.3907166      0.7579346      0.3582077
H3        0.4707794      0.6474228      0.3297501
H3        0.4588165      0.6268234      0.3191452
H3        0.4675674      0.6254730      0.3438644
H3        0.3721161      0.5491180      0.3300018
H3        0.3928223      0.5622101      0.3209991
H3        0.3933640      0.5521164      0.3451996
H3        0.2645111      0.6475754      0.3787079
H3        0.2745590      0.6233215      0.3780594
H3        0.2614059      0.6324158      0.3574142
H3        0.3599167      0.6322708      0.4561081
H3        0.3392715      0.6217651      0.4440536
H3        0.3379669      0.6464233      0.4529572
H3        0.3729248      0.6781158      0.4556656
H3        0.3951721      0.6853714      0.4439697
H3        0.3930283      0.6612701      0.4539108
H3        0.3751144      0.6252670      0.2507935
H3        0.3999710      0.6253662      0.2590942
H3        0.3899231      0.6468201      0.2481461
H3        0.3599167      0.6810150      0.2497025
H3        0.3357239      0.6805191      0.2597961
H3        0.3447189      0.6597672      0.2467041
H3        0.2629013      0.6776199      0.3444672
H3        0.2738647      0.6875687      0.3229141
H3        0.2655106      0.6627121      0.3229141
H3        0.3445282      0.7584763      0.3451157
H3        0.3340225      0.7464828      0.3244095
H3        0.3586655      0.7553253      0.3231583
H3        0.4686737      0.6806641      0.3588104
H3        0.4586639      0.6827698      0.3829193
H3        0.4704208      0.6605682      0.3757095
H3        0.3376694      0.5531616      0.3603134
H3        0.3376694      0.5615234      0.3852081
H3        0.3591690      0.5506210      0.3752670
H3        0.4841690      0.6756210      0.2502518
H3        0.4626236      0.6865234      0.2602005
H3        0.4626694      0.6781616      0.2353439
H3        0.2484512      0.6315613      0.2528992
H3        0.2723694      0.6212769      0.2557983
H3        0.2658615      0.6328125      0.2332535
H3        0.3457794      0.7724838      0.4548111
H3        0.3338165      0.7518234      0.4442139
H3        0.3426132      0.7505264      0.4689102
H3        0.4837265      0.6303711      0.4482040
H3        0.4590607      0.6214676      0.4494095
H3        0.4694672      0.6334763      0.4701157
H3        0.4848709      0.7572861      0.3311081
H3        0.4642715      0.7467346      0.3190536
H3        0.4629211      0.7713776      0.3279572
H3        0.2479095      0.5531158      0.3306656
H3        0.2701111      0.5604172      0.3188934
H3        0.2680511      0.5362549      0.3289108
H3        0.2500610      0.7502823      0.3758087
H3        0.2749557      0.7503815      0.3841705
H3        0.2649078      0.7718353      0.3731613
H3        0.4849167      0.5560150      0.3747025
H3        0.4607239      0.5555191      0.3848114
H3        0.4697189      0.5347595      0.3717041
H3        0.3879166      0.5526199      0.4694672
H3        0.3989258      0.5625687      0.4479523
H3        0.3905258      0.5377121      0.4479141
H3        0.3864746      0.7574310      0.2323608
H3        0.3995132      0.7483826      0.2530441
H3        0.3894653      0.7725830      0.2536926
H3        0.3436737      0.5557251      0.2338409
H3        0.3336639      0.5577240      0.2579422
H3        0.3454208      0.5355072      0.2506485
H3        0.2683029      0.6770782      0.4701996
H3        0.2678070      0.6872101      0.4460144
H3        0.2471161      0.6741180      0.4550018
H3        0.6235275      0.5064621      0.3780136
H3        0.6475296      0.4962616      0.3806076
H3        0.6407318      0.5079193      0.3582077
H3        0.7207947      0.3974075      0.3297501
H3        0.7088470      0.3767929      0.3191452
H3        0.7175827      0.3754578      0.3438644
H3        0.6221313      0.2991028      0.3300018
H3        0.6428375      0.3121948      0.3209991
H3        0.6433792      0.3021011      0.3451996
H3        0.5145264      0.3975601      0.3787079
H3        0.5245743      0.3732910      0.3780594
H3        0.5114365      0.3824158      0.3574142
H3        0.6099319      0.3822556      0.4561081
H3        0.5892715      0.3717499      0.4440536
H3        0.5879745      0.3964081      0.4529572
H3        0.6229248      0.4281082      0.4556656
H3        0.6451721      0.4353561      0.4439697
H3        0.6430283      0.4112549      0.4539108
H3        0.6251297      0.3752518      0.2507935
H3        0.6499863      0.3753510      0.2590942
H3        0.6399384      0.3968048      0.2481461
H3        0.6099319      0.4309998      0.2497025
H3        0.5857239      0.4305038      0.2597961
H3        0.5947342      0.4097595      0.2467041
H3        0.5129318      0.4276047      0.3444672
H3        0.5238800      0.4375687      0.3229141
H3        0.5155258      0.4127121      0.3229141
H3        0.5945282      0.5084610      0.3451157
H3        0.5840378      0.4964523      0.3244095
H3        0.6086807      0.5053101      0.3231583
H3        0.7186890      0.4306641      0.3588104
H3        0.7086945      0.4327545      0.3829193
H3        0.7204361      0.4105682      0.3757095
H3        0.5876846      0.3031464      0.3603134
H3        0.5876846      0.3115082      0.3852081
H3        0.6091843      0.3006058      0.3752670
H3        0.7341995      0.4256058      0.2502518
H3        0.7126389      0.4365082      0.2602005
H3        0.7126846      0.4281616      0.2353439
H3        0.4984818      0.3815613      0.2528992
H3        0.5223846      0.3712463      0.2557983
H3        0.5158768      0.3828125      0.2332535
H3        0.5957794      0.5224533      0.4548111
H3        0.5838318      0.5018082      0.4442139
H3        0.5926285      0.5005188      0.4689102
H3        0.7337418      0.3803558      0.4482040
H3        0.7090912      0.3714523      0.4494095
H3        0.7194977      0.3834610      0.4701157
H3        0.7348862      0.5072556      0.3311081
H3        0.7142868      0.4967041      0.3190536
H3        0.7129364      0.5213623      0.3279572
H3        0.4979248      0.3031082      0.3306656
H3        0.5201263      0.3104019      0.3188934
H3        0.5180817      0.2862549      0.3289108
H3        0.5000763      0.5002670      0.3758087
H3        0.5249863      0.5003510      0.3841705
H3        0.5149384      0.5218048      0.3731613
H3        0.7349472      0.3059998      0.3747025
H3        0.7107391      0.3055038      0.3848114
H3        0.7197495      0.2847595      0.3717041
H3        0.6379318      0.3026047      0.4694672
H3        0.6489258      0.3125534      0.4479523
H3        0.6405258      0.2876968      0.4479141
H3        0.6364746      0.5074158      0.2323608
H3        0.6495285      0.4983673      0.2530441
H3        0.6394806      0.5225601      0.2536926
H3        0.5936737      0.3056946      0.2338409
H3        0.5836792      0.3076935      0.2579422
H3        0.5954208      0.2855072      0.2506485
H3        0.5183334      0.4270630      0.4701996
H3        0.5178375      0.4372101      0.4460144
H3        0.4971313      0.4241180      0.4550018
H3        0.6099319      0.6322708      0.2061081
H3        0.5892715      0.6217651      0.1940536
H3        0.5879745      0.6464233      0.2029419
H3        0.6229248      0.6781158      0.2056503
H3        0.6451721      0.6853714      0.1939545
H3        0.6430283      0.6612701      0.2038956
H3        0.3599167      0.6322708      0.2061081
H3        0.3392715      0.6217651      0.1940536
H3        0.3379669      0.6464233      0.2029419
H3        0.3729248      0.6781158      0.2056503
H3        0.3951721      0.6853714      0.1939545
H3        0.3930283      0.6612701      0.2038956
H3        0.6099319      0.3822556      0.2061081
H3        0.5892715      0.3717499      0.1940536
H3        0.5879745      0.3964081      0.2029419
H3        0.6229248      0.4281082      0.2056503
H3        0.6451721      0.4353561      0.1939545
H3        0.6430283      0.4112549      0.2038956
H3        0.3599167      0.3822556      0.2061081
H3        0.3392715      0.3717499      0.1940536
H3        0.3379669      0.3964081      0.2029419
H3        0.3729248      0.4281082      0.2056503
H3        0.3951721      0.4353561      0.1939545
H3        0.3930283      0.4112549      0.2038956
H3        0.6235275      0.2564468      0.6280136
H3        0.6475296      0.2462463      0.6306229
H3        0.6407318      0.2579041      0.6082230
H3        0.5945282      0.2584457      0.5951157
H3        0.5840378      0.2464523      0.5744247
H3        0.6086807      0.2552948      0.5731735
H3        0.5957794      0.2724533      0.7048264
H3        0.5838318      0.2517929      0.6942291
H3        0.5926285      0.2505035      0.7189255
H3        0.7348862      0.2572556      0.5811234
H3        0.7142868      0.2467041      0.5690689
H3        0.7129364      0.2713470      0.5779724
H3        0.5000763      0.2502518      0.6258240
H3        0.5249863      0.2503510      0.6341705
H3        0.5149384      0.2718048      0.6231766
H3        0.6364746      0.2574005      0.4823608
H3        0.6495285      0.2483521      0.5030746
H3        0.6394806      0.2725449      0.5037231
H3        0.3735123      0.2564468      0.6280136
H3        0.3975143      0.2462463      0.6306229
H3        0.3907166      0.2579041      0.6082230
H3        0.3445282      0.2584457      0.5951157
H3        0.3340225      0.2464523      0.5744247
H3        0.3586655      0.2552948      0.5731735
H3        0.3457794      0.2724533      0.7048264
H3        0.3338165      0.2517929      0.6942291
H3        0.3426132      0.2505035      0.7189255
H3        0.4848709      0.2572556      0.5811234
H3        0.4642715      0.2467041      0.5690689
H3        0.4629211      0.2713470      0.5779724
H3        0.2500610      0.2502518      0.6258240
H3        0.2749557      0.2503510      0.6341705
H3        0.2649078      0.2718048      0.6231766
H3        0.3864746      0.2574005      0.4823608
H3        0.3995132      0.2483521      0.5030746
H3        0.3894653      0.2725449      0.5037231
H3        0.6235275      0.2564468      0.3780136
H3        0.6475296      0.2462463      0.3806076
H3        0.6407318      0.2579041      0.3582077
H3        0.5945282      0.2584457      0.3451157
H3        0.5840378      0.2464523      0.3244095
H3        0.6086807      0.2552948      0.3231583
H3        0.5957794      0.2724533      0.4548111
H3        0.5838318      0.2517929      0.4442139
H3        0.5926285      0.2505035      0.4689102
H3        0.7348862      0.2572556      0.3311081
H3        0.7142868      0.2467041      0.3190536
H3        0.7129364      0.2713470      0.3279572
H3        0.5000763      0.2502518      0.3758087
H3        0.5249863      0.2503510      0.3841705
H3        0.5149384      0.2718048      0.3731613
H3        0.3735123      0.2564468      0.3780136
H3        0.3975143      0.2462463      0.3806076
H3        0.3907166      0.2579041      0.3582077
H3        0.3445282      0.2584457      0.3451157
H3        0.3340225      0.2464523      0.3244095
H3        0.3586655      0.2552948      0.3231583
H3        0.3457794      0.2724533      0.4548111
H3        0.3338165      0.2517929      0.4442139
H3        0.3426132      0.2505035      0.4689102
H3        0.4848709      0.2572556      0.3311081
H3        0.4642715      0.2467041      0.3190536
H3        0.4629211      0.2713470      0.3279572
H3        0.2500610      0.2502518      0.3758087
H3        0.2749557      0.2503510      0.3841705
H3        0.2649078      0.2718048      0.3731613
H3        0.3864746      0.2574005      0.2323608
H3        0.3995132      0.2483521      0.2530441
H3        0.3894653      0.2725449      0.2536926
H3        0.7500916      0.2502518      0.6258240
H3        0.7749863      0.2503510      0.6341705
H3        0.7649384      0.2718048      0.6231766
H3        0.7500916      0.2502518      0.3758087
H3        0.7749863      0.2503510      0.3841705
H3        0.7649384      0.2718048      0.3731613
H3        0.2207642      0.6474228      0.5797653
H3        0.2088165      0.6268234      0.5691757
H3        0.2175522      0.6254730      0.5938644
H3        0.2186584      0.6806641      0.6088104
H3        0.2086639      0.6827698      0.6329193
H3        0.2204056      0.6605682      0.6257172
H3        0.2207642      0.3974075      0.5797653
H3        0.2088165      0.3767929      0.5691757
H3        0.2175522      0.3754578      0.5938644
H3        0.2186584      0.4306641      0.6088104
H3        0.2086639      0.4327545      0.6329193
H3        0.2204056      0.4105682      0.6257172
H3        0.2207642      0.6474228      0.3297501
H3        0.2088165      0.6268234      0.3191452
H3        0.2175522      0.6254730      0.3438644
H3        0.2186584      0.6806641      0.3588104
H3        0.2086639      0.6827698      0.3829193
H3        0.2204056      0.6605682      0.3757095
H3        0.2207642      0.3974075      0.3297501
H3        0.2088165      0.3767929      0.3191452
H3        0.2175522      0.3754578      0.3438644
H3        0.2186584      0.4306641      0.3588104
H3        0.2086639      0.4327545      0.3829193
H3        0.2204056      0.4105682      0.3757095
H3        0.7645416      0.3975601      0.3787079
H3        0.7745895      0.3732910      0.3780594
H3        0.7614365      0.3824158      0.3574142
H3        0.7629318      0.4276047      0.3444672
H3        0.7738953      0.4375687      0.3229141
H3        0.7655411      0.4127121      0.3229141
H3        0.7484818      0.3815613      0.2528992
H3        0.7723923      0.3712463      0.2557983
H3        0.7658920      0.3828125      0.2332535
H3        0.7479401      0.3031082      0.3306656
H3        0.7701416      0.3104019      0.3188934
H3        0.7680817      0.2862549      0.3289108
H3        0.7500916      0.5002670      0.3758087
H3        0.7749863      0.5003510      0.3841705
H3        0.7649384      0.5218048      0.3731613
H3        0.7645416      0.6475754      0.6287231
H3        0.7745895      0.6233215      0.6280746
H3        0.7614365      0.6324158      0.6074142
H3        0.7629318      0.6776199      0.5944672
H3        0.7738953      0.6875687      0.5729218
H3        0.7655411      0.6627121      0.5729218
H3        0.7484818      0.6315613      0.5029144
H3        0.7723923      0.6212769      0.5058289
H3        0.7658920      0.6328125      0.4832535
H3        0.7479401      0.5531158      0.5806656
H3        0.7701416      0.5604172      0.5689240
H3        0.7680817      0.5362549      0.5789108
H3        0.7500916      0.7502823      0.6258240
H3        0.7749863      0.7503815      0.6341705
H3        0.7649384      0.7718353      0.6231766
H3        0.7683334      0.6770782      0.7202301
H3        0.7678375      0.6872101      0.6960297
H3        0.7471466      0.6741180      0.7050323
H3        0.7645416      0.3975601      0.6287231
H3        0.7745895      0.3732910      0.6280746
H3        0.7614365      0.3824158      0.6074142
H3        0.7629318      0.4276047      0.5944672
H3        0.7738953      0.4375687      0.5729218
H3        0.7655411      0.4127121      0.5729218
H3        0.7484818      0.3815613      0.5029144
H3        0.7723923      0.3712463      0.5058289
H3        0.7658920      0.3828125      0.4832535
H3        0.7479401      0.3031082      0.5806656
H3        0.7701416      0.3104019      0.5689240
H3        0.7680817      0.2862549      0.5789108
H3        0.7500916      0.5002670      0.6258240
H3        0.7749863      0.5003510      0.6341705
H3        0.7649384      0.5218048      0.6231766
H3        0.7683334      0.4270630      0.7202301
H3        0.7678375      0.4372101      0.6960297
H3        0.7471466      0.4241180      0.7050323
H3        0.7645416      0.6475754      0.3787079
H3        0.7745895      0.6233215      0.3780594
H3        0.7614365      0.6324158      0.3574142
H3        0.7629318      0.6776199      0.3444672
H3        0.7738953      0.6875687      0.3229141
H3        0.7655411      0.6627121      0.3229141
H3        0.7484818      0.6315613      0.2528992
H3        0.7723923      0.6212769      0.2557983
H3        0.7658920      0.6328125      0.2332535
H3        0.7479401      0.5531158      0.3306656
H3        0.7701416      0.5604172      0.3188934
H3        0.7680817      0.5362549      0.3289108
H3        0.7500916      0.7502823      0.3758087
H3        0.7749863      0.7503815      0.3841705
H3        0.7649384      0.7718353      0.3731613
H3        0.7683334      0.6770782      0.4701996
H3        0.7678375      0.6872101      0.4460144
H3        0.7471466      0.6741180      0.4550018
H3        0.3721161      0.7991333      0.3300018
H3        0.3928223      0.8122253      0.3209991
H3        0.3933640      0.8021317      0.3451996
H3        0.3376694      0.8031769      0.3603134
H3        0.3376694      0.8115387      0.3852081
H3        0.3591690      0.8006363      0.3752670
H3        0.6221313      0.7991333      0.5800171
H3        0.6428375      0.8122253      0.5710297
H3        0.6433792      0.8021317      0.5952148
H3        0.5876846      0.8031769      0.6103134
H3        0.5876846      0.8115387      0.6352234
H3        0.6091843      0.8006363      0.6252670
H3        0.3721161      0.7991333      0.5800171
H3        0.3928223      0.8122253      0.5710297
H3        0.3933640      0.8021317      0.5952148
H3        0.3376694      0.8031769      0.6103134
H3        0.3376694      0.8115387      0.6352234
H3        0.3591690      0.8006363      0.6252670
H3        0.6221313      0.7991333      0.3300018
H3        0.6428375      0.8122253      0.3209991
H3        0.6433792      0.8021317      0.3451996
H3        0.6364746      0.2574005      0.7323837
H3        0.6495285      0.2483521      0.7530746
H3        0.6394806      0.2725449      0.7537231
H3        0.3864746      0.2574005      0.7323837
H3        0.3995132      0.2483521      0.7530746
H3        0.3894653      0.2725449      0.7537231
H3        0.3751144      0.3752518      0.7508240
H3        0.3999710      0.3753510      0.7591248
H3        0.3899231      0.3968048      0.7481766
H3        0.3599167      0.4309998      0.7497330
H3        0.3357239      0.4305038      0.7598267
H3        0.3447189      0.4097595      0.7467346
H3        0.4841690      0.4256058      0.7502823
H3        0.4626236      0.4365082      0.7602234
H3        0.4626694      0.4281616      0.7353745
H3        0.2484512      0.3815613      0.7529297
H3        0.2723694      0.3712463      0.7558289
H3        0.2658615      0.3828125      0.7332840
H3        0.3864746      0.5074158      0.7323837
H3        0.3995132      0.4983673      0.7530746
H3        0.3894653      0.5225601      0.7537231
H3        0.3436737      0.3056946      0.7338715
H3        0.3336639      0.3076935      0.7579727
H3        0.3454208      0.2855072      0.7506790
H3        0.6251297      0.6252670      0.7508240
H3        0.6499863      0.6253662      0.7591248
H3        0.6399384      0.6468201      0.7481766
H3        0.6099319      0.6810150      0.7497330
H3        0.5857239      0.6805191      0.7598267
H3        0.5947342      0.6597672      0.7467346
H3        0.7341995      0.6756210      0.7502823
H3        0.7126389      0.6865234      0.7602234
H3        0.7126846      0.6781616      0.7353745
H3        0.4984818      0.6315613      0.7529297
H3        0.5223846      0.6212769      0.7558289
H3        0.5158768      0.6328125      0.7332840
H3        0.6364746      0.7574310      0.7323837
H3        0.6495285      0.7483826      0.7530746
H3        0.6394806      0.7725830      0.7537231
H3        0.5936737      0.5557251      0.7338715
H3        0.5836792      0.5577240      0.7579727
H3        0.5954208      0.5355072      0.7506790
H3        0.3751144      0.6252670      0.7508240
H3        0.3999710      0.6253662      0.7591248
H3        0.3899231      0.6468201      0.7481766
H3        0.3599167      0.6810150      0.7497330
H3        0.3357239      0.6805191      0.7598267
H3        0.3447189      0.6597672      0.7467346
H3        0.4841690      0.6756210      0.7502823
H3        0.4626236      0.6865234      0.7602234
H3        0.4626694      0.6781616      0.7353745
H3        0.3864746      0.7574310      0.7323837
H3        0.3995132      0.7483826      0.7530746
H3        0.3894653      0.7725830      0.7537231
H3        0.3436737      0.5557251      0.7338715
H3        0.3336639      0.5577240      0.7579727
H3        0.3454208      0.5355072      0.7506790
H3        0.6251297      0.3752518      0.7508240
H3        0.6499863      0.3753510      0.7591248
H3        0.6399384      0.3968048      0.7481766
H3        0.6099319      0.4309998      0.7497330
H3        0.5857239      0.4305038      0.7598267
H3        0.5947342      0.4097595      0.7467346
H3        0.7341995      0.4256058      0.7502823
H3        0.7126389      0.4365082      0.7602234
H3        0.7126846      0.4281616      0.7353745
H3        0.4984818      0.3815613      0.7529297
H3        0.5223846      0.3712463      0.7558289
H3        0.5158768      0.3828125      0.7332840
H3        0.6364746      0.5074158      0.7323837
H3        0.6495285      0.4983673      0.7530746
H3        0.6394806      0.5225601      0.7537231
H3        0.5936737      0.3056946      0.7338715
H3        0.5836792      0.3076935      0.7579727
H3        0.5954208      0.2855072      0.7506790
H3        0.7484818      0.3815613      0.7529297
H3        0.7723923      0.3712463      0.7558289
H3        0.7658920      0.3828125      0.7332840
H3        0.7484818      0.6315613      0.7529297
H3        0.7723923      0.6212769      0.7558289
H3        0.7658920      0.6328125      0.7332840
C2        0.3339157      0.5024567      0.3983078
C2        0.4648209      0.4362564      0.3049469
C2        0.3993683      0.3046036      0.3997040
C2        0.2672195      0.3710556      0.3043976
C2        0.3335190      0.3049469      0.3043976
C2        0.2671127      0.4379044      0.3990555
C2        0.4008255      0.5047073      0.3035431
C2        0.4670715      0.3703918      0.4002686
C2        0.4130630      0.3715591      0.4501038
C2        0.3333130      0.3566513      0.2523575
C2        0.3183212      0.4384613      0.4523087
C2        0.4002228      0.4514160      0.2523956
C2        0.4144211      0.4369659      0.2522507
C2        0.3986206      0.3573608      0.4500580
C2        0.3190689      0.3711014      0.2524567
C2        0.3327713      0.4526596      0.4523087
C2        0.4648209      0.4507065      0.3191452
C2        0.4670715      0.3559418      0.3860626
C2        0.3190689      0.3047943      0.3185959
C2        0.2669678      0.4521027      0.3846054
C2        0.4150238      0.5047531      0.3179932
C2        0.2673035      0.3567963      0.3188019
C2        0.3197174      0.5024567      0.3838577
C2        0.4137726      0.3047562      0.3854599
C2        0.4589157      0.3774567      0.2732925
C2        0.3398209      0.3112564      0.4299622
C2        0.2743683      0.4296036      0.2747040
C2        0.3921738      0.4960098      0.4294128
C2        0.4585190      0.4299164      0.4294128
C2        0.3921127      0.3129044      0.2740402
C2        0.2758102      0.3797073      0.4285583
C2        0.3420715      0.4954071      0.2752533
C2        0.2880630      0.4965591      0.3250580
C2        0.4583130      0.4817123      0.3773575
C2        0.4433670      0.3134460      0.3273087
C2        0.2752075      0.3264008      0.3774109
C2        0.2894058      0.3119507      0.3772659
C2        0.2736206      0.4823608      0.3250580
C2        0.4441147      0.4961166      0.3775177
C2        0.4577713      0.3276520      0.3273087
C2        0.3398209      0.3257065      0.4441605
C2        0.3420715      0.4810028      0.2610474
C2        0.4440689      0.4298096      0.4436111
C2        0.3919678      0.3271027      0.2595901
C2        0.2900543      0.3797073      0.4429626
C2        0.3923187      0.4818115      0.4438019
C2        0.4447174      0.3774567      0.2588425
C2        0.2887573      0.4298096      0.2604446
C2        0.5839310      0.7524872      0.6483231
C2        0.7148438      0.6862717      0.5549698
C2        0.6493835      0.5546188      0.6497192
C2        0.5172272      0.6210709      0.5544128
C2        0.5835342      0.5549698      0.5544128
C2        0.5171280      0.6879196      0.6490707
C2        0.6508255      0.7547226      0.5535736
C2        0.7170868      0.6204224      0.6502686
C2        0.6630936      0.6215744      0.7001343
C2        0.5833282      0.6066666      0.5023727
C2        0.5683365      0.6884613      0.7023239
C2        0.6502380      0.7014236      0.5024109
C2        0.6644363      0.6869659      0.5022659
C2        0.6486282      0.6073685      0.7000732
C2        0.5690842      0.6211166      0.5024719
C2        0.5827866      0.7026596      0.7023239
C2        0.7148438      0.7007217      0.5691757
C2        0.7170868      0.6059723      0.6360626
C2        0.5690842      0.5548248      0.5686111
C2        0.5169830      0.7021179      0.6346207
C2        0.6650391      0.7547836      0.5680237
C2        0.5173340      0.6068115      0.5688171
C2        0.5697327      0.7524872      0.6338730
C2        0.6637878      0.5547638      0.6354752
C2        0.7089462      0.6274719      0.5233231
C2        0.5898285      0.5612717      0.6799698
C2        0.5243835      0.6796188      0.5247192
C2        0.6421890      0.7460251      0.6794281
C2        0.7085342      0.6799164      0.6794281
C2        0.6421280      0.5629196      0.5240707
C2        0.5258255      0.6297226      0.6785736
C2        0.5920868      0.7454224      0.5252686
C2        0.5380783      0.7465897      0.5750732
C2        0.7083435      0.7317276      0.6273727
C2        0.6933899      0.5634613      0.5773239
C2        0.5252380      0.5764236      0.6274109
C2        0.5394363      0.5619659      0.6272659
C2        0.5236282      0.7323837      0.5750732
C2        0.6941452      0.7461319      0.6275177
C2        0.7077866      0.5776596      0.5773239
C2        0.5898285      0.5757217      0.6941757
C2        0.5920868      0.7310333      0.5110626
C2        0.6940842      0.6798248      0.6936264
C2        0.6419830      0.5771179      0.5096207
C2        0.5400848      0.6297226      0.6929779
C2        0.6423340      0.7318268      0.6938324
C2        0.6947479      0.6274719      0.5088730
C2        0.5387726      0.6798248      0.5104752
C2        0.3339157      0.7524872      0.6483231
C2        0.4648209      0.6862717      0.5549698
C2        0.3993683      0.5546188      0.6497192
C2        0.2672195      0.6210709      0.5544128
C2        0.3335190      0.5549698      0.5544128
C2        0.2671127      0.6879196      0.6490707
C2        0.4008255      0.7547226      0.5535736
C2        0.4670715      0.6204224      0.6502686
C2        0.4130630      0.6215744      0.7001343
C2        0.3333130      0.6066666      0.5023727
C2        0.3183212      0.6884613      0.7023239
C2        0.4002228      0.7014236      0.5024109
C2        0.4144211      0.6869659      0.5022659
C2        0.3986206      0.6073685      0.7000732
C2        0.3190689      0.6211166      0.5024719
C2        0.3327713      0.7026596      0.7023239
C2        0.4648209      0.7007217      0.5691757
C2        0.4670715      0.6059723      0.6360626
C2        0.3190689      0.5548248      0.5686111
C2        0.2669678      0.7021179      0.6346207
C2        0.4150238      0.7547836      0.5680237
C2        0.2673035      0.6068115      0.5688171
C2        0.3197174      0.7524872      0.6338730
C2        0.4137726      0.5547638      0.6354752
C2        0.4589157      0.6274719      0.5233231
C2        0.3398209      0.5612717      0.6799698
C2        0.2743683      0.6796188      0.5247192
C2        0.3921738      0.7460251      0.6794281
C2        0.4585190      0.6799164      0.6794281
C2        0.3921127      0.5629196      0.5240707
C2        0.2758102      0.6297226      0.6785736
C2        0.3420715      0.7454224      0.5252686
C2        0.2880630      0.7465897      0.5750732
C2        0.4583130      0.7317276      0.6273727
C2        0.4433670      0.5634613      0.5773239
C2        0.2752075      0.5764236      0.6274109
C2        0.2894058      0.5619659      0.6272659
C2        0.2736206      0.7323837      0.5750732
C2        0.4441147      0.7461319      0.6275177
C2        0.4577713      0.5776596      0.5773239
C2        0.3398209      0.5757217      0.6941757
C2        0.3420715      0.7310333      0.5110626
C2        0.4440689      0.6798248      0.6936264
C2        0.3919678      0.5771179      0.5096207
C2        0.2900543      0.6297226      0.6929779
C2        0.3923187      0.7318268      0.6938324
C2        0.4447174      0.6274719      0.5088730
C2        0.2887573      0.6798248      0.5104752
C2        0.5839310      0.5024567      0.6483231
C2        0.7148438      0.4362564      0.5549698
C2        0.6493835      0.3046036      0.6497192
C2        0.5172272      0.3710556      0.5544128
C2        0.5835342      0.3049469      0.5544128
C2        0.5171280      0.4379044      0.6490707
C2        0.6508255      0.5047073      0.5535736
C2        0.7170868      0.3703918      0.6502686
C2        0.6630936      0.3715591      0.7001343
C2        0.5833282      0.3566513      0.5023727
C2        0.5683365      0.4384613      0.7023239
C2        0.6502380      0.4514160      0.5024109
C2        0.6644363      0.4369659      0.5022659
C2        0.6486282      0.3573608      0.7000732
C2        0.5690842      0.3711014      0.5024719
C2        0.5827866      0.4526596      0.7023239
C2        0.7148438      0.4507065      0.5691757
C2        0.7170868      0.3559418      0.6360626
C2        0.5690842      0.3047943      0.5686111
C2        0.5169830      0.4521027      0.6346207
C2        0.6650391      0.5047531      0.5680237
C2        0.5173340      0.3567963      0.5688171
C2        0.5697327      0.5024567      0.6338730
C2        0.6637878      0.3047562      0.6354752
C2        0.7089462      0.3774567      0.5233231
C2        0.5898285      0.3112564      0.6799698
C2        0.5243835      0.4296036      0.5247192
C2        0.6421890      0.4960098      0.6794281
C2        0.7085342      0.4299164      0.6794281
C2        0.6421280      0.3129044      0.5240707
C2        0.5258255      0.3797073      0.6785736
C2        0.5920868      0.4954071      0.5252686
C2        0.5380783      0.4965591      0.5750732
C2        0.7083435      0.4817123      0.6273727
C2        0.6933899      0.3134460      0.5773239
C2        0.5252380      0.3264008      0.6274109
C2        0.5394363      0.3119507      0.6272659
C2        0.5236282      0.4823608      0.5750732
C2        0.6941452      0.4961166      0.6275177
C2        0.7077866      0.3276520      0.5773239
C2        0.5898285      0.3257065      0.6941757
C2        0.5920868      0.4810028      0.5110626
C2        0.6940842      0.4298096      0.6936264
C2        0.6419830      0.3271027      0.5096207
C2        0.5400848      0.3797073      0.6929779
C2        0.6423340      0.4818115      0.6938324
C2        0.6947479      0.3774567      0.5088730
C2        0.5387726      0.4298096      0.5104752
C2        0.3339157      0.5024567      0.6483231
C2        0.4648209      0.4362564      0.5549698
C2        0.3993683      0.3046036      0.6497192
C2        0.2672195      0.3710556      0.5544128
C2        0.3335190      0.3049469      0.5544128
C2        0.2671127      0.4379044      0.6490707
C2        0.4008255      0.5047073      0.5535736
C2        0.4670715      0.3703918      0.6502686
C2        0.4130630      0.3715591      0.7001343
C2        0.3333130      0.3566513      0.5023727
C2        0.3183212      0.4384613      0.7023239
C2        0.4002228      0.4514160      0.5024109
C2        0.4144211      0.4369659      0.5022659
C2        0.3986206      0.3573608      0.7000732
C2        0.3190689      0.3711014      0.5024719
C2        0.3327713      0.4526596      0.7023239
C2        0.4648209      0.4507065      0.5691757
C2        0.4670715      0.3559418      0.6360626
C2        0.3190689      0.3047943      0.5686111
C2        0.2669678      0.4521027      0.6346207
C2        0.4150238      0.5047531      0.5680237
C2        0.2673035      0.3567963      0.5688171
C2        0.3197174      0.5024567      0.6338730
C2        0.4137726      0.3047562      0.6354752
C2        0.4589157      0.3774567      0.5233231
C2        0.3398209      0.3112564      0.6799698
C2        0.2743683      0.4296036      0.5247192
C2        0.3921738      0.4960098      0.6794281
C2        0.4585190      0.4299164      0.6794281
C2        0.3921127      0.3129044      0.5240707
C2        0.2758102      0.3797073      0.6785736
C2        0.3420715      0.4954071      0.5252686
C2        0.2880630      0.4965591      0.5750732
C2        0.4583130      0.4817123      0.6273727
C2        0.4433670      0.3134460      0.5773239
C2        0.2752075      0.3264008      0.6274109
C2        0.2894058      0.3119507      0.6272659
C2        0.2736206      0.4823608      0.5750732
C2        0.4441147      0.4961166      0.6275177
C2        0.4577713      0.3276520      0.5773239
C2        0.3398209      0.3257065      0.6941757
C2        0.3420715      0.4810028      0.5110626
C2        0.4440689      0.4298096      0.6936264
C2        0.3919678      0.3271027      0.5096207
C2        0.2900543      0.3797073      0.6929779
C2        0.3923187      0.4818115      0.6938324
C2        0.4447174      0.3774567      0.5088730
C2        0.2887573      0.4298096      0.5104752
C2        0.7148438      0.6862717      0.3049469
C2        0.6493835      0.5546188      0.3997040
C2        0.5172272      0.6210709      0.3043976
C2        0.5835342      0.5549698      0.3043976
C2        0.5171280      0.6879196      0.3990555
C2        0.6508255      0.7547226      0.3035431
C2        0.7170868      0.6204224      0.4002686
C2        0.6630936      0.6215744      0.4501038
C2        0.5833282      0.6066666      0.2523575
C2        0.5683365      0.6884613      0.4523087
C2        0.6502380      0.7014236      0.2523956
C2        0.6644363      0.6869659      0.2522507
C2        0.6486282      0.6073685      0.4500580
C2        0.5690842      0.6211166      0.2524567
C2        0.5827866      0.7026596      0.4523087
C2        0.7148438      0.7007217      0.3191452
C2        0.7170868      0.6059723      0.3860626
C2        0.5690842      0.5548248      0.3185959
C2        0.5169830      0.7021179      0.3846054
C2        0.6650391      0.7547836      0.3179932
C2        0.5173340      0.6068115      0.3188019
C2        0.6637878      0.5547638      0.3854599
C2        0.7089462      0.6274719      0.2732925
C2        0.5898285      0.5612717      0.4299622
C2        0.5243835      0.6796188      0.2747040
C2        0.6421890      0.7460251      0.4294128
C2        0.7085342      0.6799164      0.4294128
C2        0.6421280      0.5629196      0.2740402
C2        0.5258255      0.6297226      0.4285583
C2        0.5920868      0.7454224      0.2752533
C2        0.5380783      0.7465897      0.3250580
C2        0.7083435      0.7317276      0.3773575
C2        0.6933899      0.5634613      0.3273087
C2        0.5252380      0.5764236      0.3774109
C2        0.5394363      0.5619659      0.3772659
C2        0.5236282      0.7323837      0.3250580
C2        0.6941452      0.7461319      0.3775177
C2        0.7077866      0.5776596      0.3273087
C2        0.5898285      0.5757217      0.4441605
C2        0.5920868      0.7310333      0.2610474
C2        0.6940842      0.6798248      0.4436111
C2        0.6419830      0.5771179      0.2595901
C2        0.5400848      0.6297226      0.4429626
C2        0.6423340      0.7318268      0.4438019
C2        0.6947479      0.6274719      0.2588425
C2        0.5387726      0.6798248      0.2604446
C2        0.3339157      0.7524872      0.3983078
C2        0.4648209      0.6862717      0.3049469
C2        0.3993683      0.5546188      0.3997040
C2        0.2672195      0.6210709      0.3043976
C2        0.3335190      0.5549698      0.3043976
C2        0.2671127      0.6879196      0.3990555
C2        0.4008255      0.7547226      0.3035431
C2        0.4670715      0.6204224      0.4002686
C2        0.4130630      0.6215744      0.4501038
C2        0.3333130      0.6066666      0.2523575
C2        0.3183212      0.6884613      0.4523087
C2        0.4002228      0.7014236      0.2523956
C2        0.4144211      0.6869659      0.2522507
C2        0.3986206      0.6073685      0.4500580
C2        0.3190689      0.6211166      0.2524567
C2        0.3327713      0.7026596      0.4523087
C2        0.4648209      0.7007217      0.3191452
C2        0.4670715      0.6059723      0.3860626
C2        0.3190689      0.5548248      0.3185959
C2        0.2669678      0.7021179      0.3846054
C2        0.4150238      0.7547836      0.3179932
C2        0.2673035      0.6068115      0.3188019
C2        0.3197174      0.7524872      0.3838577
C2        0.4137726      0.5547638      0.3854599
C2        0.4589157      0.6274719      0.2732925
C2        0.3398209      0.5612717      0.4299622
C2        0.2743683      0.6796188      0.2747040
C2        0.3921738      0.7460251      0.4294128
C2        0.4585190      0.6799164      0.4294128
C2        0.3921127      0.5629196      0.2740402
C2        0.2758102      0.6297226      0.4285583
C2        0.3420715      0.7454224      0.2752533
C2        0.2880630      0.7465897      0.3250580
C2        0.4583130      0.7317276      0.3773575
C2        0.4433670      0.5634613      0.3273087
C2        0.2752075      0.5764236      0.3774109
C2        0.2894058      0.5619659      0.3772659
C2        0.2736206      0.7323837      0.3250580
C2        0.4441147      0.7461319      0.3775177
C2        0.4577713      0.5776596      0.3273087
C2        0.3398209      0.5757217      0.4441605
C2        0.3420715      0.7310333      0.2610474
C2        0.4440689      0.6798248      0.4436111
C2        0.3919678      0.5771179      0.2595901
C2        0.2900543      0.6297226      0.4429626
C2        0.3923187      0.7318268      0.4438019
C2        0.4447174      0.6274719      0.2588425
C2        0.2887573      0.6798248      0.2604446
C2        0.5839310      0.5024567      0.3983078
C2        0.7148438      0.4362564      0.3049469
C2        0.6493835      0.3046036      0.3997040
C2        0.5172272      0.3710556      0.3043976
C2        0.5835342      0.3049469      0.3043976
C2        0.5171280      0.4379044      0.3990555
C2        0.6508255      0.5047073      0.3035431
C2        0.7170868      0.3703918      0.4002686
C2        0.6630936      0.3715591      0.4501038
C2        0.5833282      0.3566513      0.2523575
C2        0.5683365      0.4384613      0.4523087
C2        0.6502380      0.4514160      0.2523956
C2        0.6644363      0.4369659      0.2522507
C2        0.6486282      0.3573608      0.4500580
C2        0.5690842      0.3711014      0.2524567
C2        0.5827866      0.4526596      0.4523087
C2        0.7148438      0.4507065      0.3191452
C2        0.7170868      0.3559418      0.3860626
C2        0.5690842      0.3047943      0.3185959
C2        0.5169830      0.4521027      0.3846054
C2        0.6650391      0.5047531      0.3179932
C2        0.5173340      0.3567963      0.3188019
C2        0.5697327      0.5024567      0.3838577
C2        0.6637878      0.3047562      0.3854599
C2        0.7089462      0.3774567      0.2732925
C2        0.5898285      0.3112564      0.4299622
C2        0.5243835      0.4296036      0.2747040
C2        0.6421890      0.4960098      0.4294128
C2        0.7085342      0.4299164      0.4294128
C2        0.6421280      0.3129044      0.2740402
C2        0.5258255      0.3797073      0.4285583
C2        0.5920868      0.4954071      0.2752533
C2        0.5380783      0.4965591      0.3250580
C2        0.7083435      0.4817123      0.3773575
C2        0.6933899      0.3134460      0.3273087
C2        0.5252380      0.3264008      0.3774109
C2        0.5394363      0.3119507      0.3772659
C2        0.5236282      0.4823608      0.3250580
C2        0.6941452      0.4961166      0.3775177
C2        0.7077866      0.3276520      0.3273087
C2        0.5898285      0.3257065      0.4441605
C2        0.5920868      0.4810028      0.2610474
C2        0.6940842      0.4298096      0.4436111
C2        0.6419830      0.3271027      0.2595901
C2        0.5400848      0.3797073      0.4429626
C2        0.6423340      0.4818115      0.4438019
C2        0.6947479      0.3774567      0.2588425
C2        0.5387726      0.4298096      0.2604446
C2        0.6630936      0.6215744      0.2001038
C2        0.6486282      0.6073685      0.2000427
C2        0.4130630      0.6215744      0.2001038
C2        0.3183212      0.6884613      0.2022934
C2        0.3986206      0.6073685      0.2000427
C2        0.3327713      0.7026596      0.2022934
C2        0.6630936      0.3715591      0.2001038
C2        0.5683365      0.4384613      0.2022934
C2        0.6486282      0.3573608      0.2000427
C2        0.5827866      0.4526596      0.2022934
C2        0.4130630      0.3715591      0.2001038
C2        0.3183212      0.4384613      0.2022934
C2        0.3986206      0.3573608      0.2000427
C2        0.3327713      0.4526596      0.2022934
C2        0.5839310      0.2524567      0.6483231
C2        0.6508255      0.2546921      0.5535736
C2        0.6650391      0.2547531      0.5680237
C2        0.5697327      0.2524567      0.6338730
C2        0.6421890      0.2459946      0.6794281
C2        0.5920868      0.2453918      0.5252686
C2        0.5380783      0.2465591      0.5750732
C2        0.7083435      0.2316971      0.6273727
C2        0.5236282      0.2323608      0.5750732
C2        0.6941452      0.2461014      0.6275177
C2        0.5920868      0.2310028      0.5110626
C2        0.6423340      0.2317963      0.6938324
C2        0.3339157      0.2524567      0.6483231
C2        0.4008255      0.2546921      0.5535736
C2        0.4150238      0.2547531      0.5680237
C2        0.3197174      0.2524567      0.6338730
C2        0.3921738      0.2459946      0.6794281
C2        0.3420715      0.2453918      0.5252686
C2        0.2880630      0.2465591      0.5750732
C2        0.4583130      0.2316971      0.6273727
C2        0.2736206      0.2323608      0.5750732
C2        0.4441147      0.2461014      0.6275177
C2        0.3420715      0.2310028      0.5110626
C2        0.3923187      0.2317963      0.6938324
C2        0.5839310      0.2524567      0.3983078
C2        0.6508255      0.2546921      0.3035431
C2        0.6650391      0.2547531      0.3179932
C2        0.5697327      0.2524567      0.3838577
C2        0.6421890      0.2459946      0.4294128
C2        0.5380783      0.2465591      0.3250580
C2        0.7083435      0.2316971      0.3773575
C2        0.5236282      0.2323608      0.3250580
C2        0.6941452      0.2461014      0.3775177
C2        0.6423340      0.2317963      0.4438019
C2        0.3339157      0.2524567      0.3983078
C2        0.4008255      0.2546921      0.3035431
C2        0.4150238      0.2547531      0.3179932
C2        0.3197174      0.2524567      0.3838577
C2        0.3921738      0.2459946      0.4294128
C2        0.3420715      0.2453918      0.2752533
C2        0.2880630      0.2465591      0.3250580
C2        0.4583130      0.2316971      0.3773575
C2        0.2736206      0.2323608      0.3250580
C2        0.4441147      0.2461014      0.3775177
C2        0.3420715      0.2310028      0.2610474
C2        0.3923187      0.2317963      0.4438019
C2        0.7880936      0.2465591      0.5750732
C2        0.7736435      0.2323608      0.5750732
C2        0.7880936      0.2465591      0.3250580
C2        0.7736435      0.2323608      0.3250580
C2        0.2148056      0.6862717      0.5549698
C2        0.2170563      0.6204224      0.6502686
C2        0.2148056      0.7007217      0.5691757
C2        0.2170563      0.6059723      0.6360626
C2        0.2148056      0.4362564      0.5549698
C2        0.2170563      0.3703918      0.6502686
C2        0.2148056      0.4507065      0.5691757
C2        0.2170563      0.3559418      0.6360626
C2        0.2148056      0.6862717      0.3049469
C2        0.2170563      0.6204224      0.4002686
C2        0.2148056      0.7007217      0.3191452
C2        0.2170563      0.6059723      0.3860626
C2        0.2148056      0.4362564      0.3049469
C2        0.2148056      0.4507065      0.3191452
C2        0.7672424      0.3710556      0.3043976
C2        0.7671432      0.4379044      0.3990555
C2        0.7669983      0.4521027      0.3846054
C2        0.7673340      0.3567963      0.3188019
C2        0.7743988      0.4296036      0.2747040
C2        0.7880936      0.4965591      0.3250580
C2        0.7752380      0.3264008      0.3774109
C2        0.7894363      0.3119507      0.3772659
C2        0.7736435      0.4823608      0.3250580
C2        0.7887878      0.4298096      0.2604446
C2        0.7672424      0.6210709      0.5544128
C2        0.7671432      0.6879196      0.6490707
C2        0.7669983      0.7021179      0.6346207
C2        0.7673340      0.6068115      0.5688171
C2        0.7743988      0.6796188      0.5247192
C2        0.7758408      0.6297226      0.6785736
C2        0.7880936      0.7465897      0.5750732
C2        0.7752380      0.5764236      0.6274109
C2        0.7894363      0.5619659      0.6272659
C2        0.7736435      0.7323837      0.5750732
C2        0.7901001      0.6297226      0.6929779
C2        0.7887878      0.6798248      0.5104752
C2        0.7672424      0.3710556      0.5544128
C2        0.7671432      0.4379044      0.6490707
C2        0.7669983      0.4521027      0.6346207
C2        0.7673340      0.3567963      0.5688171
C2        0.7743988      0.4296036      0.5247192
C2        0.7758408      0.3797073      0.6785736
C2        0.7880936      0.4965591      0.5750732
C2        0.7752380      0.3264008      0.6274109
C2        0.7894363      0.3119507      0.6272659
C2        0.7736435      0.4823608      0.5750732
C2        0.7901001      0.3797073      0.6929779
C2        0.7887878      0.4298096      0.5104752
C2        0.7672424      0.6210709      0.3043976
C2        0.7671432      0.6879196      0.3990555
C2        0.7669983      0.7021179      0.3846054
C2        0.7673340      0.6068115      0.3188019
C2        0.7743988      0.6796188      0.2747040
C2        0.7758408      0.6297226      0.4285583
C2        0.7880936      0.7465897      0.3250580
C2        0.7752380      0.5764236      0.3774109
C2        0.7894363      0.5619659      0.3772659
C2        0.7736435      0.7323837      0.3250580
C2        0.7901001      0.6297226      0.4429626
C2        0.7887878      0.6798248      0.2604446
C2        0.3993683      0.8046341      0.3997040
C2        0.3335190      0.8049698      0.3043976
C2        0.3190689      0.8048248      0.3185959
C2        0.4137726      0.8047791      0.3854599
C2        0.6493835      0.8046341      0.6497192
C2        0.5835342      0.8049698      0.5544128
C2        0.5690842      0.8048248      0.5686111
C2        0.6637878      0.8047791      0.6354752
C2        0.3993683      0.8046341      0.6497192
C2        0.3335190      0.8049698      0.5544128
C2        0.3190689      0.8048248      0.5686111
C2        0.4137726      0.8047791      0.6354752
C2        0.6493835      0.8046341      0.3997040
C2        0.5835342      0.8049698      0.3043976
C2        0.5690842      0.8048248      0.3185959
C2        0.6637878      0.8047791      0.3854599
C2        0.5920868      0.2453918      0.7752762
C2        0.5920868      0.2310028      0.7610779
C2        0.3420715      0.2453918      0.7752762
C2        0.3420715      0.2310028      0.7610779
C2        0.3333130      0.3566513      0.7523804
C2        0.4002228      0.4514160      0.7524261
C2        0.4144211      0.4369659      0.7522812
C2        0.3190689      0.3711014      0.7524872
C2        0.4589157      0.3774567      0.7733383
C2        0.2743683      0.4296036      0.7747345
C2        0.3921127      0.3129044      0.7740707
C2        0.3420715      0.4954071      0.7752762
C2        0.3420715      0.4810028      0.7610779
C2        0.3919678      0.3271027      0.7596207
C2        0.4447174      0.3774567      0.7588730
C2        0.2887573      0.4298096      0.7604752
C2        0.5833282      0.6066666      0.7523804
C2        0.6502380      0.7014236      0.7524261
C2        0.6644363      0.6869659      0.7522812
C2        0.5690842      0.6211166      0.7524872
C2        0.7089462      0.6274719      0.7733383
C2        0.5243835      0.6796188      0.7747345
C2        0.6421280      0.5629196      0.7740707
C2        0.5920868      0.7454224      0.7752762
C2        0.5920868      0.7310333      0.7610779
C2        0.6419830      0.5771179      0.7596207
C2        0.6947479      0.6274719      0.7588730
C2        0.5387726      0.6798248      0.7604752
C2        0.3333130      0.6066666      0.7523804
C2        0.4002228      0.7014236      0.7524261
C2        0.4144211      0.6869659      0.7522812
C2        0.3190689      0.6211166      0.7524872
C2        0.4589157      0.6274719      0.7733383
C2        0.3921127      0.5629196      0.7740707
C2        0.3420715      0.7454224      0.7752762
C2        0.3420715      0.7310333      0.7610779
C2        0.3919678      0.5771179      0.7596207
C2        0.4447174      0.6274719      0.7588730
C2        0.5833282      0.3566513      0.7523804
C2        0.6502380      0.4514160      0.7524261
C2        0.6644363      0.4369659      0.7522812
C2        0.5690842      0.3711014      0.7524872
C2        0.7089462      0.3774567      0.7733383
C2        0.5243835      0.4296036      0.7747345
C2        0.6421280      0.3129044      0.7740707
C2        0.5920868      0.4954071      0.7752762
C2        0.5920868      0.4810028      0.7610779
C2        0.6419830      0.3271027      0.7596207
C2        0.6947479      0.3774567      0.7588730
C2        0.5387726      0.4298096      0.7604752
C2        0.7743988      0.4296036      0.7747345
C2        0.7887878      0.4298096      0.7604752
C2        0.7743988      0.6796188      0.7747345
C2        0.7887878      0.6798248      0.7604752
H2        0.3376236      0.4914093      0.4093170
H2        0.4537659      0.4323578      0.2939987
H2        0.3959274      0.3152466      0.4111557
H2        0.2779160      0.3744583      0.2929993
H2        0.3369217      0.3158035      0.2931442
H2        0.2779160      0.4347153      0.4104614
H2        0.3979721      0.4943085      0.2917023
H2        0.4566650      0.3734512      0.4120636
H2        0.4240723      0.3752518      0.4390640
H2        0.3366699      0.3451996      0.2629929
H2        0.3065033      0.4356079      0.4419098
H2        0.3970108      0.4628143      0.2631989
H2        0.4259262      0.4335022      0.2629013
H2        0.3947754      0.3463974      0.4390106
H2        0.3077545      0.3744965      0.2633057
H2        0.3358154      0.4644623      0.4419098
H2        0.4537659      0.4617157      0.3228073
H2        0.4566650      0.3441467      0.3832092
H2        0.3076630      0.3154907      0.3219986
H2        0.2776031      0.4636078      0.3811646
H2        0.4268723      0.4943619      0.3209991
H2        0.2782059      0.3456039      0.3223038
H2        0.3087540      0.4914093      0.3799591
H2        0.4251785      0.3155518      0.3823166
H2        0.4626236      0.3664093      0.2843018
H2        0.3287659      0.3073578      0.4190140
H2        0.2709122      0.4402618      0.2861557
H2        0.4028702      0.4994125      0.4179688
H2        0.4619217      0.4408035      0.4181137
H2        0.4029160      0.3097000      0.2854462
H2        0.2729568      0.3693085      0.4167175
H2        0.3316650      0.4984512      0.2870483
H2        0.2990570      0.5002670      0.3140488
H2        0.4617157      0.4702606      0.3880692
H2        0.4315186      0.3105927      0.3169098
H2        0.2720566      0.3377991      0.3882141
H2        0.3009109      0.3085022      0.3879013
H2        0.2697601      0.4714127      0.3139954
H2        0.4328156      0.4995575      0.3883591
H2        0.4608154      0.3394470      0.3169098
H2        0.3288269      0.3367004      0.4478073
H2        0.3316193      0.4691620      0.2581940
H2        0.4326630      0.4404678      0.4470139
H2        0.4025726      0.3385925      0.2561493
H2        0.3018570      0.3693466      0.4460144
H2        0.4031601      0.4705582      0.4472656
H2        0.4338150      0.3664093      0.2549438
H2        0.3001633      0.4406128      0.2573013
H2        0.5876236      0.7414398      0.6593170
H2        0.7037964      0.6823730      0.5440292
H2        0.6459274      0.5652771      0.6611710
H2        0.5279312      0.6244736      0.5430222
H2        0.5869370      0.5658188      0.5431747
H2        0.5279312      0.6847229      0.6604767
H2        0.6479874      0.7443314      0.5417175
H2        0.7066956      0.6234665      0.6620636
H2        0.6740875      0.6252670      0.6890793
H2        0.5866852      0.5952148      0.5130234
H2        0.5565338      0.6856232      0.6919327
H2        0.6470261      0.7128143      0.5132141
H2        0.6759415      0.6835175      0.5129166
H2        0.6447754      0.5964279      0.6890259
H2        0.5577850      0.6245117      0.5133133
H2        0.5858307      0.7144623      0.6919327
H2        0.7037964      0.7117157      0.5728226
H2        0.7066956      0.5941696      0.6332245
H2        0.5576782      0.5655212      0.5720139
H2        0.5276337      0.7136230      0.6311646
H2        0.6768799      0.7443771      0.5710297
H2        0.5282364      0.5956116      0.5723190
H2        0.5587845      0.7414398      0.6299744
H2        0.6751938      0.5655670      0.6323166
H2        0.7126389      0.6164246      0.5343170
H2        0.5787811      0.5573730      0.6690292
H2        0.5209274      0.6902771      0.5361710
H2        0.6528854      0.7494278      0.6679840
H2        0.7119370      0.6908188      0.6681290
H2        0.6529312      0.5597229      0.5354767
H2        0.5229874      0.6193237      0.6667328
H2        0.5816803      0.7484818      0.5370636
H2        0.5490723      0.7502823      0.5640640
H2        0.7117386      0.7202759      0.6380692
H2        0.6815338      0.5606232      0.5669250
H2        0.5220871      0.5878143      0.6382141
H2        0.5509262      0.5585175      0.6379166
H2        0.5197754      0.7214279      0.5640259
H2        0.6828461      0.7495728      0.6383743
H2        0.7108459      0.5894623      0.5669250
H2        0.5788269      0.5867157      0.6978378
H2        0.5816345      0.7191696      0.5082245
H2        0.6826935      0.6904678      0.6970291
H2        0.6525726      0.5886230      0.5061646
H2        0.5518799      0.6193619      0.6960297
H2        0.6531754      0.7205887      0.6972809
H2        0.6838455      0.6164246      0.5049744
H2        0.5501785      0.6906281      0.5073166
H2        0.3376236      0.7414398      0.6593170
H2        0.4537659      0.6823730      0.5440292
H2        0.3959274      0.5652771      0.6611710
H2        0.2779160      0.6244736      0.5430222
H2        0.3369217      0.5658188      0.5431747
H2        0.2779160      0.6847229      0.6604767
H2        0.3979721      0.7443314      0.5417175
H2        0.4566650      0.6234665      0.6620636
H2        0.4240723      0.6252670      0.6890793
H2        0.3366699      0.5952148      0.5130234
H2        0.3065033      0.6856232      0.6919327
H2        0.3970108      0.7128143      0.5132141
H2        0.4259262      0.6835175      0.5129166
H2        0.3947754      0.5964279      0.6890259
H2        0.3077545      0.6245117      0.5133133
H2        0.3358154      0.7144623      0.6919327
H2        0.4537659      0.7117157      0.5728226
H2        0.4566650      0.5941696      0.6332245
H2        0.3076630      0.5655212      0.5720139
H2        0.2776031      0.7136230      0.6311646
H2        0.4268723      0.7443771      0.5710297
H2        0.2782059      0.5956116      0.5723190
H2        0.3087540      0.7414398      0.6299744
H2        0.4251785      0.5655670      0.6323166
H2        0.4626236      0.6164246      0.5343170
H2        0.3287659      0.5573730      0.6690292
H2        0.2709122      0.6902771      0.5361710
H2        0.4028702      0.7494278      0.6679840
H2        0.4619217      0.6908188      0.6681290
H2        0.4029160      0.5597229      0.5354767
H2        0.2729568      0.6193237      0.6667328
H2        0.3316650      0.7484818      0.5370636
H2        0.2990570      0.7502823      0.5640640
H2        0.4617157      0.7202759      0.6380692
H2        0.4315186      0.5606232      0.5669250
H2        0.2720566      0.5878143      0.6382141
H2        0.3009109      0.5585175      0.6379166
H2        0.2697601      0.7214279      0.5640259
H2        0.4328156      0.7495728      0.6383743
H2        0.4608154      0.5894623      0.5669250
H2        0.3288269      0.5867157      0.6978378
H2        0.3316193      0.7191696      0.5082245
H2        0.4326630      0.6904678      0.6970291
H2        0.4025726      0.5886230      0.5061646
H2        0.3018570      0.6193619      0.6960297
H2        0.4031601      0.7205887      0.6972809
H2        0.4338150      0.6164246      0.5049744
H2        0.3001633      0.6906281      0.5073166
H2        0.5876236      0.4914093      0.6593170
H2        0.7037964      0.4323578      0.5440292
H2        0.6459274      0.3152466      0.6611710
H2        0.5279312      0.3744583      0.5430222
H2        0.5869370      0.3158035      0.5431747
H2        0.5279312      0.4347153      0.6604767
H2        0.6479874      0.4943085      0.5417175
H2        0.7066956      0.3734512      0.6620636
H2        0.6740875      0.3752518      0.6890793
H2        0.5866852      0.3451996      0.5130234
H2        0.5565338      0.4356079      0.6919327
H2        0.6470261      0.4628143      0.5132141
H2        0.6759415      0.4335022      0.5129166
H2        0.6447754      0.3463974      0.6890259
H2        0.5577850      0.3744965      0.5133133
H2        0.5858307      0.4644623      0.6919327
H2        0.7037964      0.4617157      0.5728226
H2        0.7066956      0.3441467      0.6332245
H2        0.5576782      0.3154907      0.5720139
H2        0.5276337      0.4636078      0.6311646
H2        0.6768799      0.4943619      0.5710297
H2        0.5282364      0.3456039      0.5723190
H2        0.5587845      0.4914093      0.6299744
H2        0.6751938      0.3155518      0.6323166
H2        0.7126389      0.3664093      0.5343170
H2        0.5787811      0.3073578      0.6690292
H2        0.5209274      0.4402618      0.5361710
H2        0.6528854      0.4994125      0.6679840
H2        0.7119370      0.4408035      0.6681290
H2        0.6529312      0.3097000      0.5354767
H2        0.5229874      0.3693085      0.6667328
H2        0.5816803      0.4984512      0.5370636
H2        0.5490723      0.5002670      0.5640640
H2        0.7117386      0.4702606      0.6380692
H2        0.6815338      0.3105927      0.5669250
H2        0.5220871      0.3377991      0.6382141
H2        0.5509262      0.3085022      0.6379166
H2        0.5197754      0.4714127      0.5640259
H2        0.6828461      0.4995575      0.6383743
H2        0.7108459      0.3394470      0.5669250
H2        0.5788269      0.3367004      0.6978378
H2        0.5816345      0.4691620      0.5082245
H2        0.6826935      0.4404678      0.6970291
H2        0.6525726      0.3385925      0.5061646
H2        0.5518799      0.3693466      0.6960297
H2        0.6531754      0.4705582      0.6972809
H2        0.6838455      0.3664093      0.5049744
H2        0.5501785      0.4406128      0.5073166
H2        0.3376236      0.4914093      0.6593170
H2        0.4537659      0.4323578      0.5440292
H2        0.3959274      0.3152466      0.6611710
H2        0.2779160      0.3744583      0.5430222
H2        0.3369217      0.3158035      0.5431747
H2        0.2779160      0.4347153      0.6604767
H2        0.3979721      0.4943085      0.5417175
H2        0.4566650      0.3734512      0.6620636
H2        0.4240723      0.3752518      0.6890793
H2        0.3366699      0.3451996      0.5130234
H2        0.3065033      0.4356079      0.6919327
H2        0.3970108      0.4628143      0.5132141
H2        0.4259262      0.4335022      0.5129166
H2        0.3947754      0.3463974      0.6890259
H2        0.3077545      0.3744965      0.5133133
H2        0.3358154      0.4644623      0.6919327
H2        0.4537659      0.4617157      0.5728226
H2        0.4566650      0.3441467      0.6332245
H2        0.3076630      0.3154907      0.5720139
H2        0.2776031      0.4636078      0.6311646
H2        0.4268723      0.4943619      0.5710297
H2        0.2782059      0.3456039      0.5723190
H2        0.3087540      0.4914093      0.6299744
H2        0.4251785      0.3155518      0.6323166
H2        0.4626236      0.3664093      0.5343170
H2        0.3287659      0.3073578      0.6690292
H2        0.2709122      0.4402618      0.5361710
H2        0.4028702      0.4994125      0.6679840
H2        0.4619217      0.4408035      0.6681290
H2        0.4029160      0.3097000      0.5354767
H2        0.2729568      0.3693085      0.6667328
H2        0.3316650      0.4984512      0.5370636
H2        0.2990570      0.5002670      0.5640640
H2        0.4617157      0.4702606      0.6380692
H2        0.4315186      0.3105927      0.5669250
H2        0.2720566      0.3377991      0.6382141
H2        0.3009109      0.3085022      0.6379166
H2        0.2697601      0.4714127      0.5640259
H2        0.4328156      0.4995575      0.6383743
H2        0.4608154      0.3394470      0.5669250
H2        0.3288269      0.3367004      0.6978378
H2        0.3316193      0.4691620      0.5082245
H2        0.4326630      0.4404678      0.6970291
H2        0.4025726      0.3385925      0.5061646
H2        0.3018570      0.3693466      0.6960297
H2        0.4031601      0.4705582      0.6972809
H2        0.4338150      0.3664093      0.5049744
H2        0.3001633      0.4406128      0.5073166
H2        0.7037964      0.6823730      0.2939987
H2        0.6459274      0.5652771      0.4111557
H2        0.5279312      0.6244736      0.2929993
H2        0.5869370      0.5658188      0.2931442
H2        0.5279312      0.6847229      0.4104614
H2        0.6479874      0.7443314      0.2917023
H2        0.7066956      0.6234665      0.4120636
H2        0.6740875      0.6252670      0.4390640
H2        0.5866852      0.5952148      0.2629929
H2        0.5565338      0.6856232      0.4419098
H2        0.6470261      0.7128143      0.2631989
H2        0.6759415      0.6835175      0.2629013
H2        0.6447754      0.5964279      0.4390106
H2        0.5577850      0.6245117      0.2633057
H2        0.5858307      0.7144623      0.4419098
H2        0.7037964      0.7117157      0.3228073
H2        0.7066956      0.5941696      0.3832092
H2        0.5576782      0.5655212      0.3219986
H2        0.5276337      0.7136230      0.3811646
H2        0.6768799      0.7443771      0.3209991
H2        0.5282364      0.5956116      0.3223038
H2        0.6751938      0.5655670      0.3823166
H2        0.7126389      0.6164246      0.2843018
H2        0.5787811      0.5573730      0.4190140
H2        0.5209274      0.6902771      0.2861557
H2        0.6528854      0.7494278      0.4179688
H2        0.7119370      0.6908188      0.4181137
H2        0.6529312      0.5597229      0.2854462
H2        0.5229874      0.6193237      0.4167175
H2        0.5816803      0.7484818      0.2870483
H2        0.5490723      0.7502823      0.3140488
H2        0.7117386      0.7202759      0.3880692
H2        0.6815338      0.5606232      0.3169098
H2        0.5220871      0.5878143      0.3882141
H2        0.5509262      0.5585175      0.3879013
H2        0.5197754      0.7214279      0.3139954
H2        0.6828461      0.7495728      0.3883591
H2        0.7108459      0.5894623      0.3169098
H2        0.5788269      0.5867157      0.4478073
H2        0.5816345      0.7191696      0.2581940
H2        0.6826935      0.6904678      0.4470139
H2        0.6525726      0.5886230      0.2561493
H2        0.5518799      0.6193619      0.4460144
H2        0.6531754      0.7205887      0.4472656
H2        0.6838455      0.6164246      0.2549438
H2        0.5501785      0.6906281      0.2573013
H2        0.3376236      0.7414398      0.4093170
H2        0.4537659      0.6823730      0.2939987
H2        0.3959274      0.5652771      0.4111557
H2        0.2779160      0.6244736      0.2929993
H2        0.3369217      0.5658188      0.2931442
H2        0.2779160      0.6847229      0.4104614
H2        0.3979721      0.7443314      0.2917023
H2        0.4566650      0.6234665      0.4120636
H2        0.4240723      0.6252670      0.4390640
H2        0.3366699      0.5952148      0.2629929
H2        0.3065033      0.6856232      0.4419098
H2        0.3970108      0.7128143      0.2631989
H2        0.4259262      0.6835175      0.2629013
H2        0.3947754      0.5964279      0.4390106
H2        0.3077545      0.6245117      0.2633057
H2        0.3358154      0.7144623      0.4419098
H2        0.4537659      0.7117157      0.3228073
H2        0.4566650      0.5941696      0.3832092
H2        0.3076630      0.5655212      0.3219986
H2        0.2776031      0.7136230      0.3811646
H2        0.4268723      0.7443771      0.3209991
H2        0.2782059      0.5956116      0.3223038
H2        0.3087540      0.7414398      0.3799591
H2        0.4251785      0.5655670      0.3823166
H2        0.4626236      0.6164246      0.2843018
H2        0.3287659      0.5573730      0.4190140
H2        0.2709122      0.6902771      0.2861557
H2        0.4028702      0.7494278      0.4179688
H2        0.4619217      0.6908188      0.4181137
H2        0.4029160      0.5597229      0.2854462
H2        0.2729568      0.6193237      0.4167175
H2        0.3316650      0.7484818      0.2870483
H2        0.2990570      0.7502823      0.3140488
H2        0.4617157      0.7202759      0.3880692
H2        0.4315186      0.5606232      0.3169098
H2        0.2720566      0.5878143      0.3882141
H2        0.3009109      0.5585175      0.3879013
H2        0.2697601      0.7214279      0.3139954
H2        0.4328156      0.7495728      0.3883591
H2        0.4608154      0.5894623      0.3169098
H2        0.3288269      0.5867157      0.4478073
H2        0.3316193      0.7191696      0.2581940
H2        0.4326630      0.6904678      0.4470139
H2        0.4025726      0.5886230      0.2561493
H2        0.3018570      0.6193619      0.4460144
H2        0.4031601      0.7205887      0.4472656
H2        0.4338150      0.6164246      0.2549438
H2        0.3001633      0.6906281      0.2573013
H2        0.5876236      0.4914093      0.4093170
H2        0.7037964      0.4323578      0.2939987
H2        0.6459274      0.3152466      0.4111557
H2        0.5279312      0.3744583      0.2929993
H2        0.5869370      0.3158035      0.2931442
H2        0.5279312      0.4347153      0.4104614
H2        0.6479874      0.4943085      0.2917023
H2        0.7066956      0.3734512      0.4120636
H2        0.6740875      0.3752518      0.4390640
H2        0.5866852      0.3451996      0.2629929
H2        0.5565338      0.4356079      0.4419098
H2        0.6470261      0.4628143      0.2631989
H2        0.6759415      0.4335022      0.2629013
H2        0.6447754      0.3463974      0.4390106
H2        0.5577850      0.3744965      0.2633057
H2        0.5858307      0.4644623      0.4419098
H2        0.7037964      0.4617157      0.3228073
H2        0.7066956      0.3441467      0.3832092
H2        0.5576782      0.3154907      0.3219986
H2        0.5276337      0.4636078      0.3811646
H2        0.6768799      0.4943619      0.3209991
H2        0.5282364      0.3456039      0.3223038
H2        0.5587845      0.4914093      0.3799591
H2        0.6751938      0.3155518      0.3823166
H2        0.7126389      0.3664093      0.2843018
H2        0.5787811      0.3073578      0.4190140
H2        0.5209274      0.4402618      0.2861557
H2        0.6528854      0.4994125      0.4179688
H2        0.7119370      0.4408035      0.4181137
H2        0.6529312      0.3097000      0.2854462
H2        0.5229874      0.3693085      0.4167175
H2        0.5816803      0.4984512      0.2870483
H2        0.5490723      0.5002670      0.3140488
H2        0.7117386      0.4702606      0.3880692
H2        0.6815338      0.3105927      0.3169098
H2        0.5220871      0.3377991      0.3882141
H2        0.5509262      0.3085022      0.3879013
H2        0.5197754      0.4714127      0.3139954
H2        0.6828461      0.4995575      0.3883591
H2        0.7108459      0.3394470      0.3169098
H2        0.5788269      0.3367004      0.4478073
H2        0.5816345      0.4691620      0.2581940
H2        0.6826935      0.4404678      0.4470139
H2        0.6525726      0.3385925      0.2561493
H2        0.5518799      0.3693466      0.4460144
H2        0.6531754      0.4705582      0.4472656
H2        0.6838455      0.3664093      0.2549438
H2        0.5501785      0.4406128      0.2573013
H2        0.6740875      0.6252670      0.1890488
H2        0.6447754      0.5964279      0.1889954
H2        0.4240723      0.6252670      0.1890488
H2        0.3065033      0.6856232      0.1919098
H2        0.3947754      0.5964279      0.1889954
H2        0.3358154      0.7144623      0.1919098
H2        0.6740875      0.3752518      0.1890488
H2        0.5565338      0.4356079      0.1919098
H2        0.6447754      0.3463974      0.1889954
H2        0.5858307      0.4644623      0.1919098
H2        0.4240723      0.3752518      0.1890488
H2        0.3065033      0.4356079      0.1919098
H2        0.3947754      0.3463974      0.1889954
H2        0.3358154      0.4644623      0.1919098
H2        0.5876236      0.2414093      0.6593170
H2        0.6479874      0.2443085      0.5417175
H2        0.6768799      0.2443466      0.5710297
H2        0.5587845      0.2414093      0.6299744
H2        0.6528854      0.2493973      0.6679840
H2        0.5816803      0.2484512      0.5370636
H2        0.5490723      0.2502518      0.5640640
H2        0.7117386      0.2202454      0.6380692
H2        0.5197754      0.2213974      0.5640259
H2        0.6828461      0.2495422      0.6383743
H2        0.5816345      0.2191467      0.5082245
H2        0.6531754      0.2205582      0.6972809
H2        0.3376236      0.2414093      0.6593170
H2        0.3979721      0.2443085      0.5417175
H2        0.4268723      0.2443466      0.5710297
H2        0.3087540      0.2414093      0.6299744
H2        0.4028702      0.2493973      0.6679840
H2        0.3316650      0.2484512      0.5370636
H2        0.2990570      0.2502518      0.5640640
H2        0.4617157      0.2202454      0.6380692
H2        0.2697601      0.2213974      0.5640259
H2        0.4328156      0.2495422      0.6383743
H2        0.3316193      0.2191467      0.5082245
H2        0.4031601      0.2205582      0.6972809
H2        0.5876236      0.2414093      0.4093170
H2        0.6479874      0.2443085      0.2917023
H2        0.6768799      0.2443466      0.3209991
H2        0.5587845      0.2414093      0.3799591
H2        0.6528854      0.2493973      0.4179688
H2        0.5490723      0.2502518      0.3140488
H2        0.7117386      0.2202454      0.3880692
H2        0.5197754      0.2213974      0.3139954
H2        0.6828461      0.2495422      0.3883591
H2        0.6531754      0.2205582      0.4472656
H2        0.3376236      0.2414093      0.4093170
H2        0.3979721      0.2443085      0.2917023
H2        0.4268723      0.2443466      0.3209991
H2        0.3087540      0.2414093      0.3799591
H2        0.4028702      0.2493973      0.4179688
H2        0.3316650      0.2484512      0.2870483
H2        0.2990570      0.2502518      0.3140488
H2        0.4617157      0.2202454      0.3880692
H2        0.2697601      0.2213974      0.3139954
H2        0.4328156      0.2495422      0.3883591
H2        0.3316193      0.2191467      0.2581940
H2        0.4031601      0.2205582      0.4472656
H2        0.7990875      0.2502518      0.5640640
H2        0.7697906      0.2213974      0.5640259
H2        0.7990875      0.2502518      0.3140488
H2        0.7697906      0.2213974      0.3139954
H2        0.2037659      0.6823730      0.5440292
H2        0.2066650      0.6234665      0.6620636
H2        0.2037659      0.7117157      0.5728226
H2        0.2066650      0.5941696      0.6332245
H2        0.2037659      0.4323578      0.5440292
H2        0.2066650      0.3734512      0.6620636
H2        0.2037659      0.4617157      0.5728226
H2        0.2066650      0.3441467      0.6332245
H2        0.2037659      0.6823730      0.2939987
H2        0.2066650      0.6234665      0.4120636
H2        0.2037659      0.7117157      0.3228073
H2        0.2066650      0.5941696      0.3832092
H2        0.2037659      0.4323578      0.2939987
H2        0.2037659      0.4617157      0.3228073
H2        0.7779465      0.3744583      0.2929993
H2        0.7779465      0.4347153      0.4104614
H2        0.7776337      0.4636078      0.3811646
H2        0.7782364      0.3456039      0.3223038
H2        0.7709351      0.4402618      0.2861557
H2        0.7990875      0.5002670      0.3140488
H2        0.7720871      0.3377991      0.3882141
H2        0.8009415      0.3085022      0.3879013
H2        0.7697906      0.4714127      0.3139954
H2        0.8001938      0.4406128      0.2573013
H2        0.7779465      0.6244736      0.5430222
H2        0.7779465      0.6847229      0.6604767
H2        0.7776337      0.7136230      0.6311646
H2        0.7782364      0.5956116      0.5723190
H2        0.7709351      0.6902771      0.5361710
H2        0.7729874      0.6193237      0.6667328
H2        0.7990875      0.7502823      0.5640640
H2        0.7720871      0.5878143      0.6382141
H2        0.8009415      0.5585175      0.6379166
H2        0.7697906      0.7214279      0.5640259
H2        0.8018799      0.6193619      0.6960297
H2        0.8001938      0.6906281      0.5073166
H2        0.7779465      0.3744583      0.5430222
H2        0.7779465      0.4347153      0.6604767
H2        0.7776337      0.4636078      0.6311646
H2        0.7782364      0.3456039      0.5723190
H2        0.7709351      0.4402618      0.5361710
H2        0.7729874      0.3693085      0.6667328
H2        0.7990875      0.5002670      0.5640640
H2        0.7720871      0.3377991      0.6382141
H2        0.8009415      0.3085022      0.6379166
H2        0.7697906      0.4714127      0.5640259
H2        0.8018799      0.3693466      0.6960297
H2        0.8001938      0.4406128      0.5073166
H2        0.7779465      0.6244736      0.2929993
H2        0.7779465      0.6847229      0.4104614
H2        0.7776337      0.7136230      0.3811646
H2        0.7782364      0.5956116      0.3223038
H2        0.7709351      0.6902771      0.2861557
H2        0.7729874      0.6193237      0.4167175
H2        0.7990875      0.7502823      0.3140488
H2        0.7720871      0.5878143      0.3882141
H2        0.8009415      0.5585175      0.3879013
H2        0.7697906      0.7214279      0.3139954
H2        0.8018799      0.6193619      0.4460144
H2        0.8001938      0.6906281      0.2573013
H2        0.3959274      0.8152771      0.4111557
H2        0.3369217      0.8158340      0.2931442
H2        0.3076630      0.8155212      0.3219986
H2        0.4251785      0.8155823      0.3823166
H2        0.6459274      0.8152771      0.6611710
H2        0.5869370      0.8158340      0.5431747
H2        0.5576782      0.8155212      0.5720139
H2        0.6751938      0.8155823      0.6323166
H2        0.3959274      0.8152771      0.6611710
H2        0.3369217      0.8158340      0.5431747
H2        0.3076630      0.8155212      0.5720139
H2        0.4251785      0.8155823      0.6323166
H2        0.6459274      0.8152771      0.4111557
H2        0.5869370      0.8158340      0.2931442
H2        0.5576782      0.8155212      0.3219986
H2        0.6751938      0.8155823      0.3823166
H2        0.5816803      0.2484512      0.7870789
H2        0.5816345      0.2191467      0.7582245
H2        0.3316650      0.2484512      0.7870789
H2        0.3316193      0.2191467      0.7582245
H2        0.3366699      0.3451996      0.7630386
H2        0.3970108      0.4628143      0.7632294
H2        0.4259262      0.4335022      0.7629318
H2        0.3077545      0.3744965      0.7633286
H2        0.4626236      0.3664093      0.7843323
H2        0.2709122      0.4402618      0.7861862
H2        0.4029160      0.3097000      0.7854767
H2        0.3316650      0.4984512      0.7870789
H2        0.3316193      0.4691620      0.7582245
H2        0.4025726      0.3385925      0.7561798
H2        0.4338150      0.3664093      0.7549744
H2        0.3001633      0.4406128      0.7573242
H2        0.5866852      0.5952148      0.7630386
H2        0.6470261      0.7128143      0.7632294
H2        0.6759415      0.6835175      0.7629318
H2        0.5577850      0.6245117      0.7633286
H2        0.7126389      0.6164246      0.7843323
H2        0.5209274      0.6902771      0.7861862
H2        0.6529312      0.5597229      0.7854767
H2        0.5816803      0.7484818      0.7870789
H2        0.5816345      0.7191696      0.7582245
H2        0.6525726      0.5886230      0.7561798
H2        0.6838455      0.6164246      0.7549744
H2        0.5501785      0.6906281      0.7573242
H2        0.3366699      0.5952148      0.7630386
H2        0.3970108      0.7128143      0.7632294
H2        0.4259262      0.6835175      0.7629318
H2        0.3077545      0.6245117      0.7633286
H2        0.4626236      0.6164246      0.7843323
H2        0.4029160      0.5597229      0.7854767
H2        0.3316650      0.7484818      0.7870789
H2        0.3316193      0.7191696      0.7582245
H2        0.4025726      0.5886230      0.7561798
H2        0.4338150      0.6164246      0.7549744
H2        0.5866852      0.3451996      0.7630386
H2        0.6470261      0.4628143      0.7632294
H2        0.6759415      0.4335022      0.7629318
H2        0.5577850      0.3744965      0.7633286
H2        0.7126389      0.3664093      0.7843323
H2        0.5209274      0.4402618      0.7861862
H2        0.6529312      0.3097000      0.7854767
H2        0.5816803      0.4984512      0.7870789
H2        0.5816345      0.4691620      0.7582245
H2        0.6525726      0.3385925      0.7561798
H2        0.6838455      0.3664093      0.7549744
H2        0.5501785      0.4406128      0.7573242
H2        0.7709351      0.4402618      0.7861862
H2        0.8001938      0.4406128      0.7573242
H2        0.7709351      0.6902771      0.7861862
H2        0.8001938      0.6906281      0.7573242
N1        0.3441162      0.5200577      0.3970566
N1        0.4824142      0.4260559      0.3064041
N1        0.3885193      0.2874908      0.3974533
N1        0.2499084      0.3817062      0.3062973
N1        0.3443680      0.2877426      0.3062973
N1        0.2500610      0.4268570      0.3971634
N1        0.3892746      0.5213623      0.3061523
N1        0.4836655      0.3819122      0.3975601
N1        0.4118195      0.3817520      0.4677200
N1        0.3440704      0.3586502      0.2350922
N1        0.3209229      0.4269104      0.4689636
N1        0.3892136      0.4495163      0.2353439
N1        0.4122162      0.4261627      0.2350922
N1        0.3884201      0.3588028      0.4676590
N1        0.3210297      0.3820038      0.2353439
N1        0.3442764      0.4499130      0.4689636
N1        0.4824142      0.4494553      0.3293533
N1        0.4836655      0.3585510      0.3745117
N1        0.3210678      0.2875519      0.3293076
N1        0.2498550      0.4498520      0.3737640
N1        0.4123154      0.5213623      0.3295059
N1        0.2501602      0.3586960      0.3296661
N1        0.3211746      0.5200577      0.3736572
N1        0.4118729      0.2877426      0.3744583
N1        0.4691162      0.3950577      0.2720566
N1        0.3574142      0.3010483      0.4314117
N1        0.2635117      0.4124603      0.2724533
N1        0.3749237      0.5067062      0.4313126
N1        0.4693680      0.4128189      0.4313126
N1        0.3750763      0.3018570      0.2721481
N1        0.2642593      0.3963623      0.4311676
N1        0.3587265      0.5069122      0.2725449
N1        0.2867584      0.5067520      0.3426590
N1        0.4690704      0.4836655      0.3601074
N1        0.4459229      0.3018951      0.3439102
N1        0.2642136      0.3245468      0.3603592
N1        0.2871552      0.3011475      0.3601074
N1        0.2634048      0.4838104      0.3426590
N1        0.4460297      0.5070038      0.3603592
N1        0.4692764      0.3249588      0.3439636
N1        0.3574142      0.3244553      0.4543533
N1        0.3586655      0.4835663      0.2494965
N1        0.4460297      0.4125671      0.4543152
N1        0.3748245      0.3248520      0.2487488
N1        0.2872543      0.3963623      0.4545059
N1        0.3751755      0.4837112      0.4546661
N1        0.4461746      0.3950577      0.2486496
N1        0.2868576      0.4127121      0.2494583
N1        0.5941315      0.7700882      0.6470718
N1        0.7324448      0.6760712      0.5564117
N1        0.6385193      0.5375061      0.6474686
N1        0.4999237      0.6317215      0.5563278
N1        0.5943756      0.5377579      0.5563278
N1        0.5000763      0.6768723      0.6471710
N1        0.6392746      0.7713776      0.5561676
N1        0.7336960      0.6319122      0.6475754
N1        0.6618423      0.6317673      0.7177277
N1        0.5940857      0.6086655      0.4851074
N1        0.5709229      0.6769104      0.7189789
N1        0.6392288      0.6995163      0.4853592
N1        0.6622391      0.6761780      0.4851074
N1        0.6384354      0.6088104      0.7176895
N1        0.5710297      0.6320190      0.4853592
N1        0.5942764      0.6999283      0.7189789
N1        0.7324448      0.6994705      0.5793686
N1        0.7336960      0.6085663      0.6245117
N1        0.5710831      0.5375671      0.5793228
N1        0.4998856      0.6998672      0.6237640
N1        0.6623459      0.7713776      0.5795135
N1        0.5001755      0.6087265      0.5796661
N1        0.5711746      0.7700882      0.6236725
N1        0.6618881      0.5377579      0.6244736
N1        0.7191467      0.6450729      0.5220718
N1        0.6074295      0.5510712      0.6814270
N1        0.5135193      0.6624603      0.5224686
N1        0.6249237      0.7567215      0.6813278
N1        0.7193909      0.6628189      0.6813278
N1        0.6250763      0.5518723      0.5221710
N1        0.5142746      0.6463623      0.6811829
N1        0.6087265      0.7569275      0.5225754
N1        0.5367889      0.7567825      0.5926743
N1        0.7190857      0.7336807      0.6101227
N1        0.6959381      0.5519104      0.5939255
N1        0.5142288      0.5745697      0.6103745
N1        0.5371857      0.5511780      0.6101227
N1        0.5134354      0.7338257      0.5926743
N1        0.6960449      0.7570343      0.6103745
N1        0.7192917      0.5749741      0.5939636
N1        0.6074295      0.5744705      0.7043839
N1        0.6086807      0.7335815      0.4995117
N1        0.6960449      0.6625671      0.7043228
N1        0.6248245      0.5748672      0.4987640
N1        0.5372849      0.6463623      0.7045288
N1        0.6251755      0.7337265      0.7046814
N1        0.6961899      0.6450729      0.4986725
N1        0.5368729      0.6627121      0.4994736
N1        0.3441162      0.7700882      0.6470718
N1        0.4824142      0.6760712      0.5564117
N1        0.3885193      0.5375061      0.6474686
N1        0.2499084      0.6317215      0.5563278
N1        0.3443680      0.5377579      0.5563278
N1        0.2500610      0.6768723      0.6471710
N1        0.3892746      0.7713776      0.5561676
N1        0.4836655      0.6319122      0.6475754
N1        0.4118195      0.6317673      0.7177277
N1        0.3440704      0.6086655      0.4851074
N1        0.3209229      0.6769104      0.7189789
N1        0.3892136      0.6995163      0.4853592
N1        0.4122162      0.6761780      0.4851074
N1        0.3884201      0.6088104      0.7176895
N1        0.3210297      0.6320190      0.4853592
N1        0.3442764      0.6999283      0.7189789
N1        0.4824142      0.6994705      0.5793686
N1        0.4836655      0.6085663      0.6245117
N1        0.3210678      0.5375671      0.5793228
N1        0.2498550      0.6998672      0.6237640
N1        0.4123154      0.7713776      0.5795135
N1        0.2501602      0.6087265      0.5796661
N1        0.3211746      0.7700882      0.6236725
N1        0.4118729      0.5377579      0.6244736
N1        0.4691162      0.6450729      0.5220718
N1        0.3574142      0.5510712      0.6814270
N1        0.2635117      0.6624603      0.5224686
N1        0.3749237      0.7567215      0.6813278
N1        0.4693680      0.6628189      0.6813278
N1        0.3750763      0.5518723      0.5221710
N1        0.2642593      0.6463623      0.6811829
N1        0.3587265      0.7569275      0.5225754
N1        0.2867584      0.7567825      0.5926743
N1        0.4690704      0.7336807      0.6101227
N1        0.4459229      0.5519104      0.5939255
N1        0.2642136      0.5745697      0.6103745
N1        0.2871552      0.5511780      0.6101227
N1        0.2634048      0.7338257      0.5926743
N1        0.4460297      0.7570343      0.6103745
N1        0.4692764      0.5749741      0.5939636
N1        0.3574142      0.5744705      0.7043839
N1        0.3586655      0.7335815      0.4995117
N1        0.4460297      0.6625671      0.7043228
N1        0.3748245      0.5748672      0.4987640
N1        0.2872543      0.6463623      0.7045288
N1        0.3751755      0.7337265      0.7046814
N1        0.4461746      0.6450729      0.4986725
N1        0.2868576      0.6627121      0.4994736
N1        0.5941315      0.5200577      0.6470718
N1        0.7324448      0.4260559      0.5564117
N1        0.6385193      0.2874908      0.6474686
N1        0.4999237      0.3817062      0.5563278
N1        0.5943756      0.2877426      0.5563278
N1        0.5000763      0.4268570      0.6471710
N1        0.6392746      0.5213623      0.5561676
N1        0.7336960      0.3819122      0.6475754
N1        0.6618423      0.3817520      0.7177277
N1        0.5940857      0.3586502      0.4851074
N1        0.5709229      0.4269104      0.7189789
N1        0.6392288      0.4495163      0.4853592
N1        0.6622391      0.4261627      0.4851074
N1        0.6384354      0.3588028      0.7176895
N1        0.5710297      0.3820038      0.4853592
N1        0.5942764      0.4499130      0.7189789
N1        0.7324448      0.4494553      0.5793686
N1        0.7336960      0.3585510      0.6245117
N1        0.5710831      0.2875519      0.5793228
N1        0.4998856      0.4498520      0.6237640
N1        0.6623459      0.5213623      0.5795135
N1        0.5001755      0.3586960      0.5796661
N1        0.5711746      0.5200577      0.6236725
N1        0.6618881      0.2877426      0.6244736
N1        0.7191467      0.3950577      0.5220718
N1        0.6074295      0.3010483      0.6814270
N1        0.5135193      0.4124603      0.5224686
N1        0.6249237      0.5067062      0.6813278
N1        0.7193909      0.4128189      0.6813278
N1        0.6250763      0.3018570      0.5221710
N1        0.5142746      0.3963623      0.6811829
N1        0.6087265      0.5069122      0.5225754
N1        0.5367889      0.5067520      0.5926743
N1        0.7190857      0.4836655      0.6101227
N1        0.6959381      0.3018951      0.5939255
N1        0.5142288      0.3245468      0.6103745
N1        0.5371857      0.3011475      0.6101227
N1        0.5134354      0.4838104      0.5926743
N1        0.6960449      0.5070038      0.6103745
N1        0.7192917      0.3249588      0.5939636
N1        0.6074295      0.3244553      0.7043839
N1        0.6086807      0.4835663      0.4995117
N1        0.6960449      0.4125671      0.7043228
N1        0.6248245      0.3248520      0.4987640
N1        0.5372849      0.3963623      0.7045288
N1        0.6251755      0.4837112      0.7046814
N1        0.6961899      0.3950577      0.4986725
N1        0.5368729      0.4127121      0.4994736
N1        0.3441162      0.5200577      0.6470718
N1        0.4824142      0.4260559      0.5564117
N1        0.3885193      0.2874908      0.6474686
N1        0.2499084      0.3817062      0.5563278
N1        0.3443680      0.2877426      0.5563278
N1        0.2500610      0.4268570      0.6471710
N1        0.3892746      0.5213623      0.5561676
N1        0.4836655      0.3819122      0.6475754
N1        0.4118195      0.3817520      0.7177277
N1        0.3440704      0.3586502      0.4851074
N1        0.3209229      0.4269104      0.7189789
N1        0.3892136      0.4495163      0.4853592
N1        0.4122162      0.4261627      0.4851074
N1        0.3884201      0.3588028      0.7176895
N1        0.3210297      0.3820038      0.4853592
N1        0.3442764      0.4499130      0.7189789
N1        0.4824142      0.4494553      0.5793686
N1        0.4836655      0.3585510      0.6245117
N1        0.3210678      0.2875519      0.5793228
N1        0.2498550      0.4498520      0.6237640
N1        0.4123154      0.5213623      0.5795135
N1        0.2501602      0.3586960      0.5796661
N1        0.3211746      0.5200577      0.6236725
N1        0.4118729      0.2877426      0.6244736
N1        0.4691162      0.3950577      0.5220718
N1        0.3574142      0.3010483      0.6814270
N1        0.2635117      0.4124603      0.5224686
N1        0.3749237      0.5067062      0.6813278
N1        0.4693680      0.4128189      0.6813278
N1        0.3750763      0.3018570      0.5221710
N1        0.2642593      0.3963623      0.6811829
N1        0.3587265      0.5069122      0.5225754
N1        0.2867584      0.5067520      0.5926743
N1        0.4690704      0.4836655      0.6101227
N1        0.4459229      0.3018951      0.5939255
N1        0.2642136      0.3245468      0.6103745
N1        0.2871552      0.3011475      0.6101227
N1        0.2634048      0.4838104      0.5926743
N1        0.4460297      0.5070038      0.6103745
N1        0.4692764      0.3249588      0.5939636
N1        0.3574142      0.3244553      0.7043839
N1        0.3586655      0.4835663      0.4995117
N1        0.4460297      0.4125671      0.7043228
N1        0.3748245      0.3248520      0.4987640
N1        0.2872543      0.3963623      0.7045288
N1        0.3751755      0.4837112      0.7046814
N1        0.4461746      0.3950577      0.4986725
N1        0.2868576      0.4127121      0.4994736
N1        0.7324448      0.6760712      0.3064041
N1        0.6385193      0.5375061      0.3974533
N1        0.4999237      0.6317215      0.3062973
N1        0.5943756      0.5377579      0.3062973
N1        0.5000763      0.6768723      0.3971634
N1        0.6392746      0.7713776      0.3061523
N1        0.7336960      0.6319122      0.3975601
N1        0.6618423      0.6317673      0.4677200
N1        0.5940857      0.6086655      0.2350922
N1        0.5709229      0.6769104      0.4689636
N1        0.6392288      0.6995163      0.2353439
N1        0.6622391      0.6761780      0.2350922
N1        0.6384354      0.6088104      0.4676590
N1        0.5710297      0.6320190      0.2353439
N1        0.5942764      0.6999283      0.4689636
N1        0.7324448      0.6994705      0.3293533
N1        0.7336960      0.6085663      0.3745117
N1        0.5710831      0.5375671      0.3293076
N1        0.4998856      0.6998672      0.3737640
N1        0.6623459      0.7713776      0.3295059
N1        0.5001755      0.6087265      0.3296661
N1        0.6618881      0.5377579      0.3744583
N1        0.7191467      0.6450729      0.2720566
N1        0.6074295      0.5510712      0.4314117
N1        0.5135193      0.6624603      0.2724533
N1        0.6249237      0.7567215      0.4313126
N1        0.7193909      0.6628189      0.4313126
N1        0.6250763      0.5518723      0.2721481
N1        0.5142746      0.6463623      0.4311676
N1        0.6087265      0.7569275      0.2725449
N1        0.5367889      0.7567825      0.3426590
N1        0.7190857      0.7336807      0.3601074
N1        0.6959381      0.5519104      0.3439102
N1        0.5142288      0.5745697      0.3603592
N1        0.5371857      0.5511780      0.3601074
N1        0.5134354      0.7338257      0.3426590
N1        0.6960449      0.7570343      0.3603592
N1        0.7192917      0.5749741      0.3439636
N1        0.6074295      0.5744705      0.4543533
N1        0.6086807      0.7335815      0.2494965
N1        0.6960449      0.6625671      0.4543152
N1        0.6248245      0.5748672      0.2487488
N1        0.5372849      0.6463623      0.4545059
N1        0.6251755      0.7337265      0.4546661
N1        0.6961899      0.6450729      0.2486496
N1        0.5368729      0.6627121      0.2494583
N1        0.3441162      0.7700882      0.3970566
N1        0.4824142      0.6760712      0.3064041
N1        0.3885193      0.5375061      0.3974533
N1        0.2499084      0.6317215      0.3062973
N1        0.3443680      0.5377579      0.3062973
N1        0.2500610      0.6768723      0.3971634
N1        0.3892746      0.7713776      0.3061523
N1        0.4836655      0.6319122      0.3975601
N1        0.4118195      0.6317673      0.4677200
N1        0.3440704      0.6086655      0.2350922
N1        0.3209229      0.6769104      0.4689636
N1        0.3892136      0.6995163      0.2353439
N1        0.4122162      0.6761780      0.2350922
N1        0.3884201      0.6088104      0.4676590
N1        0.3210297      0.6320190      0.2353439
N1        0.3442764      0.6999283      0.4689636
N1        0.4824142      0.6994705      0.3293533
N1        0.4836655      0.6085663      0.3745117
N1        0.3210678      0.5375671      0.3293076
N1        0.2498550      0.6998672      0.3737640
N1        0.4123154      0.7713776      0.3295059
N1        0.2501602      0.6087265      0.3296661
N1        0.3211746      0.7700882      0.3736572
N1        0.4118729      0.5377579      0.3744583
N1        0.4691162      0.6450729      0.2720566
N1        0.3574142      0.5510712      0.4314117
N1        0.2635117      0.6624603      0.2724533
N1        0.3749237      0.7567215      0.4313126
N1        0.4693680      0.6628189      0.4313126
N1        0.3750763      0.5518723      0.2721481
N1        0.2642593      0.6463623      0.4311676
N1        0.3587265      0.7569275      0.2725449
N1        0.2867584      0.7567825      0.3426590
N1        0.4690704      0.7336807      0.3601074
N1        0.4459229      0.5519104      0.3439102
N1        0.2642136      0.5745697      0.3603592
N1        0.2871552      0.5511780      0.3601074
N1        0.2634048      0.7338257      0.3426590
N1        0.4460297      0.7570343      0.3603592
N1        0.4692764      0.5749741      0.3439636
N1        0.3574142      0.5744705      0.4543533
N1        0.3586655      0.7335815      0.2494965
N1        0.4460297      0.6625671      0.4543152
N1        0.3748245      0.5748672      0.2487488
N1        0.2872543      0.6463623      0.4545059
N1        0.3751755      0.7337265      0.4546661
N1        0.4461746      0.6450729      0.2486496
N1        0.2868576      0.6627121      0.2494583
N1        0.5941315      0.5200577      0.3970566
N1        0.7324448      0.4260559      0.3064041
N1        0.6385193      0.2874908      0.3974533
N1        0.4999237      0.3817062      0.3062973
N1        0.5943756      0.2877426      0.3062973
N1        0.5000763      0.4268570      0.3971634
N1        0.6392746      0.5213623      0.3061523
N1        0.7336960      0.3819122      0.3975601
N1        0.6618423      0.3817520      0.4677200
N1        0.5940857      0.3586502      0.2350922
N1        0.5709229      0.4269104      0.4689636
N1        0.6392288      0.4495163      0.2353439
N1        0.6622391      0.4261627      0.2350922
N1        0.6384354      0.3588028      0.4676590
N1        0.5710297      0.3820038      0.2353439
N1        0.5942764      0.4499130      0.4689636
N1        0.7324448      0.4494553      0.3293533
N1        0.7336960      0.3585510      0.3745117
N1        0.5710831      0.2875519      0.3293076
N1        0.4998856      0.4498520      0.3737640
N1        0.6623459      0.5213623      0.3295059
N1        0.5001755      0.3586960      0.3296661
N1        0.5711746      0.5200577      0.3736572
N1        0.6618881      0.2877426      0.3744583
N1        0.7191467      0.3950577      0.2720566
N1        0.6074295      0.3010483      0.4314117
N1        0.5135193      0.4124603      0.2724533
N1        0.6249237      0.5067062      0.4313126
N1        0.7193909      0.4128189      0.4313126
N1        0.6250763      0.3018570      0.2721481
N1        0.5142746      0.3963623      0.4311676
N1        0.6087265      0.5069122      0.2725449
N1        0.5367889      0.5067520      0.3426590
N1        0.7190857      0.4836655      0.3601074
N1        0.6959381      0.3018951      0.3439102
N1        0.5142288      0.3245468      0.3603592
N1        0.5371857      0.3011475      0.3601074
N1        0.5134354      0.4838104      0.3426590
N1        0.6960449      0.5070038      0.3603592
N1        0.7192917      0.3249588      0.3439636
N1        0.6074295      0.3244553      0.4543533
N1        0.6086807      0.4835663      0.2494965
N1        0.6960449      0.4125671      0.4543152
N1        0.6248245      0.3248520      0.2487488
N1        0.5372849      0.3963623      0.4545059
N1        0.6251755      0.4837112      0.4546661
N1        0.6961899      0.3950577      0.2486496
N1        0.5368729      0.4127121      0.2494583
N1        0.6618423      0.6317673      0.2177048
N1        0.6384354      0.6088104      0.2176437
N1        0.4118195      0.6317673      0.2177048
N1        0.3209229      0.6769104      0.2189560
N1        0.3884201      0.6088104      0.2176437
N1        0.3442764      0.6999283      0.2189560
N1        0.6618423      0.3817520      0.2177048
N1        0.5709229      0.4269104      0.2189560
N1        0.6384354      0.3588028      0.2176437
N1        0.5942764      0.4499130      0.2189560
N1        0.4118195      0.3817520      0.2177048
N1        0.3209229      0.4269104      0.2189560
N1        0.3884201      0.3588028      0.2176437
N1        0.3442764      0.4499130      0.2189560
N1        0.5941315      0.2700577      0.6470718
N1        0.6392746      0.2713470      0.5561676
N1        0.6623459      0.2713470      0.5795135
N1        0.5711746      0.2700577      0.6236725
N1        0.6249237      0.2566986      0.6813278
N1        0.6087265      0.2569046      0.5225754
N1        0.5367889      0.2567520      0.5926743
N1        0.7190857      0.2336502      0.6101227
N1        0.5134354      0.2338028      0.5926743
N1        0.6960449      0.2570038      0.6103745
N1        0.6086807      0.2335510      0.4995117
N1        0.6251755      0.2336960      0.7046814
N1        0.3441162      0.2700577      0.6470718
N1        0.3892746      0.2713470      0.5561676
N1        0.4123154      0.2713470      0.5795135
N1        0.3211746      0.2700577      0.6236725
N1        0.3749237      0.2566986      0.6813278
N1        0.3587265      0.2569046      0.5225754
N1        0.2867584      0.2567520      0.5926743
N1        0.4690704      0.2336502      0.6101227
N1        0.2634048      0.2338028      0.5926743
N1        0.4460297      0.2570038      0.6103745
N1        0.3586655      0.2335510      0.4995117
N1        0.3751755      0.2336960      0.7046814
N1        0.5941315      0.2700577      0.3970566
N1        0.6392746      0.2713470      0.3061523
N1        0.6623459      0.2713470      0.3295059
N1        0.5711746      0.2700577      0.3736572
N1        0.6249237      0.2566986      0.4313126
N1        0.5367889      0.2567520      0.3426590
N1        0.7190857      0.2336502      0.3601074
N1        0.5134354      0.2338028      0.3426590
N1        0.6960449      0.2570038      0.3603592
N1        0.6251755      0.2336960      0.4546661
N1        0.3441162      0.2700577      0.3970566
N1        0.3892746      0.2713470      0.3061523
N1        0.4123154      0.2713470      0.3295059
N1        0.3211746      0.2700577      0.3736572
N1        0.3749237      0.2566986      0.4313126
N1        0.3587265      0.2569046      0.2725449
N1        0.2867584      0.2567520      0.3426590
N1        0.4690704      0.2336502      0.3601074
N1        0.2634048      0.2338028      0.3426590
N1        0.4460297      0.2570038      0.3603592
N1        0.3586655      0.2335510      0.2494965
N1        0.3751755      0.2336960      0.4546661
N1        0.7867889      0.2567520      0.5926743
N1        0.7634354      0.2338028      0.5926743
N1        0.7867889      0.2567520      0.3426590
N1        0.7634354      0.2338028      0.3426590
N1        0.2324142      0.6760712      0.5564117
N1        0.2336655      0.6319122      0.6475754
N1        0.2324142      0.6994705      0.5793686
N1        0.2336655      0.6085663      0.6245117
N1        0.2324142      0.4260559      0.5564117
N1        0.2336655      0.3819122      0.6475754
N1        0.2324142      0.4494553      0.5793686
N1        0.2336655      0.3585510      0.6245117
N1        0.2324142      0.6760712      0.3064041
N1        0.2336655      0.6319122      0.3975601
N1        0.2324142      0.6994705      0.3293533
N1        0.2336655      0.6085663      0.3745117
N1        0.2324142      0.4260559      0.3064041
N1        0.2324142      0.4494553      0.3293533
N1        0.7499390      0.3817062      0.3062973
N1        0.7500916      0.4268570      0.3971634
N1        0.7498932      0.4498520      0.3737640
N1        0.7501907      0.3586960      0.3296661
N1        0.7635345      0.4124603      0.2724533
N1        0.7867889      0.5067520      0.3426590
N1        0.7642441      0.3245468      0.3603592
N1        0.7871857      0.3011475      0.3601074
N1        0.7634354      0.4838104      0.3426590
N1        0.7868881      0.4127121      0.2494583
N1        0.7499390      0.6317215      0.5563278
N1        0.7500916      0.6768723      0.6471710
N1        0.7498932      0.6998672      0.6237640
N1        0.7501907      0.6087265      0.5796661
N1        0.7635345      0.6624603      0.5224686
N1        0.7642899      0.6463623      0.6811829
N1        0.7867889      0.7567825      0.5926743
N1        0.7642441      0.5745697      0.6103745
N1        0.7871857      0.5511780      0.6101227
N1        0.7634354      0.7338257      0.5926743
N1        0.7872849      0.6463623      0.7045288
N1        0.7868881      0.6627121      0.4994736
N1        0.7499390      0.3817062      0.5563278
N1        0.7500916      0.4268570      0.6471710
N1        0.7498932      0.4498520      0.6237640
N1        0.7501907      0.3586960      0.5796661
N1        0.7635345      0.4124603      0.5224686
N1        0.7642899      0.3963623      0.6811829
N1        0.7867889      0.5067520      0.5926743
N1        0.7642441      0.3245468      0.6103745
N1        0.7871857      0.3011475      0.6101227
N1        0.7634354      0.4838104      0.5926743
N1        0.7872849      0.3963623      0.7045288
N1        0.7868881      0.4127121      0.4994736
N1        0.7499390      0.6317215      0.3062973
N1        0.7500916      0.6768723      0.3971634
N1        0.7498932      0.6998672      0.3737640
N1        0.7501907      0.6087265      0.3296661
N1        0.7635345      0.6624603      0.2724533
N1        0.7642899      0.6463623      0.4311676
N1        0.7867889      0.7567825      0.3426590
N1        0.7642441      0.5745697      0.3603592
N1        0.7871857      0.5511780      0.3601074
N1        0.7634354      0.7338257      0.3426590
N1        0.7872849      0.6463623      0.4545059
N1        0.7868881      0.6627121      0.2494583
N1        0.3885193      0.7875366      0.3974533
N1        0.3443680      0.7877884      0.3062973
N1        0.3210678      0.7875824      0.3293076
N1        0.4118729      0.7877884      0.3744583
N1        0.6385193      0.7875366      0.6474686
N1        0.5943756      0.7877884      0.5563278
N1        0.5710831      0.7875824      0.5793228
N1        0.6618881      0.7877884      0.6244736
N1        0.3885193      0.7875366      0.6474686
N1        0.3443680      0.7877884      0.5563278
N1        0.3210678      0.7875824      0.5793228
N1        0.4118729      0.7877884      0.6244736
N1        0.6385193      0.7875366      0.3974533
N1        0.5943756      0.7877884      0.3062973
N1        0.5710831      0.7875824      0.3293076
N1        0.6618881      0.7877884      0.3744583
N1        0.6087265      0.2569046      0.7725830
N1        0.6086807      0.2335510      0.7495270
N1        0.3587265      0.2569046      0.7725830
N1        0.3586655      0.2335510      0.7495270
N1        0.3440704      0.3586502      0.7351227
N1        0.3892136      0.4495163      0.7353745
N1        0.4122162      0.4261627      0.7351227
N1        0.3210297      0.3820038      0.7353745
N1        0.4691162      0.3950577      0.7720871
N1        0.2635117      0.4124603      0.7724838
N1        0.3750763      0.3018570      0.7721710
N1        0.3587265      0.5069122      0.7725830
N1        0.3586655      0.4835663      0.7495270
N1        0.3748245      0.3248520      0.7487793
N1        0.4461746      0.3950577      0.7486725
N1        0.2868576      0.4127121      0.7494812
N1        0.5940857      0.6086655      0.7351227
N1        0.6392288      0.6995163      0.7353745
N1        0.6622391      0.6761780      0.7351227
N1        0.5710297      0.6320190      0.7353745
N1        0.7191467      0.6450729      0.7720871
N1        0.5135193      0.6624603      0.7724838
N1        0.6250763      0.5518723      0.7721710
N1        0.6087265      0.7569275      0.7725830
N1        0.6086807      0.7335815      0.7495270
N1        0.6248245      0.5748672      0.7487793
N1        0.6961899      0.6450729      0.7486725
N1        0.5368729      0.6627121      0.7494812
N1        0.3440704      0.6086655      0.7351227
N1        0.3892136      0.6995163      0.7353745
N1        0.4122162      0.6761780      0.7351227
N1        0.3210297      0.6320190      0.7353745
N1        0.4691162      0.6450729      0.7720871
N1        0.3750763      0.5518723      0.7721710
N1        0.3587265      0.7569275      0.7725830
N1        0.3586655      0.7335815      0.7495270
N1        0.3748245      0.5748672      0.7487793
N1        0.4461746      0.6450729      0.7486725
N1        0.5940857      0.3586502      0.7351227
N1        0.6392288      0.4495163      0.7353745
N1        0.6622391      0.4261627      0.7351227
N1        0.5710297      0.3820038      0.7353745
N1        0.7191467      0.3950577      0.7720871
N1        0.5135193      0.4124603      0.7724838
N1        0.6250763      0.3018570      0.7721710
N1        0.6087265      0.5069122      0.7725830
N1        0.6086807      0.4835663      0.7495270
N1        0.6248245      0.3248520      0.7487793
N1        0.6961899      0.3950577      0.7486725
N1        0.5368729      0.4127121      0.7494812
N1        0.7635345      0.4124603      0.7724838
N1        0.7868881      0.4127121      0.7494812
N1        0.7635345      0.6624603      0.7724838
N1        0.7868881      0.6627121      0.7494812
C1        0.3360672      0.2801971      0.3819580
C1        0.2425537      0.4343567      0.3213501
C1        0.3964691      0.5277634      0.3820648
C1        0.4901276      0.3738937      0.3217010
C1        0.3364792      0.5277634      0.3214951
C1        0.4901276      0.4344635      0.3817062
C1        0.3966141      0.2808990      0.3219528
C1        0.3967209      0.3737030      0.2277985
C1        0.3362732      0.3740997      0.4753494
C1        0.3366699      0.4342575      0.2285004
C1        0.3968201      0.4341049      0.4753494
C1        0.4610672      0.4052124      0.2570038
C1        0.3675690      0.3093414      0.4463654
C1        0.2714539      0.4027634      0.2570496
C1        0.3651276      0.4989090      0.4467010
C1        0.4614792      0.4027634      0.4465103
C1        0.3651276      0.3094482      0.2566986
C1        0.2715530      0.4059143      0.4469528
C1        0.3682785      0.4993668      0.2568588
C1        0.2717056      0.4987640      0.3528137
C1        0.4612732      0.4991150      0.3503494
C1        0.4617157      0.3092575      0.3535614
C1        0.2718048      0.3091507      0.3503494
C1        0.5860825      0.5302124      0.6319733
C1        0.4925842      0.6843719      0.5713654
C1        0.6464844      0.7777786      0.6320648
C1        0.7401428      0.6239243      0.5717163
C1        0.5864792      0.7777786      0.5715103
C1        0.7401428      0.6844788      0.6317215
C1        0.6466293      0.5309143      0.5719681
C1        0.4932785      0.6243210      0.6318741
C1        0.6467361      0.6237183      0.4778137
C1        0.5862885      0.6241150      0.7253799
C1        0.5866852      0.6842728      0.4785156
C1        0.6468353      0.6841202      0.7253799
C1        0.7110977      0.6552200      0.5070190
C1        0.6175842      0.5593719      0.6963806
C1        0.5214844      0.6527634      0.5070648
C1        0.6151276      0.7489243      0.6967316
C1        0.7114944      0.6527634      0.6965256
C1        0.6151276      0.5594788      0.5067215
C1        0.5215836      0.6559143      0.6969833
C1        0.6182785      0.7493820      0.5068741
C1        0.5217361      0.7487793      0.6028290
C1        0.7112885      0.7491302      0.6003647
C1        0.7117386      0.5592728      0.6035767
C1        0.5218353      0.5591660      0.6003647
C1        0.3360672      0.5302124      0.6319733
C1        0.2425537      0.6843719      0.5713654
C1        0.3964691      0.7777786      0.6320648
C1        0.4901276      0.6239243      0.5717163
C1        0.3364792      0.7777786      0.5715103
C1        0.4901276      0.6844788      0.6317215
C1        0.3966141      0.5309143      0.5719681
C1        0.2432632      0.6243210      0.6318741
C1        0.3967209      0.6237183      0.4778137
C1        0.3362732      0.6241150      0.7253799
C1        0.3366699      0.6842728      0.4785156
C1        0.3968201      0.6841202      0.7253799
C1        0.4610672      0.6552200      0.5070190
C1        0.3675690      0.5593719      0.6963806
C1        0.2714539      0.6527634      0.5070648
C1        0.3651276      0.7489243      0.6967316
C1        0.4614792      0.6527634      0.6965256
C1        0.3651276      0.5594788      0.5067215
C1        0.2715530      0.6559143      0.6969833
C1        0.3682785      0.7493820      0.5068741
C1        0.2717056      0.7487793      0.6028290
C1        0.4612732      0.7491302      0.6003647
C1        0.4617157      0.5592728      0.6035767
C1        0.2718048      0.5591660      0.6003647
C1        0.5860825      0.2801971      0.6319733
C1        0.4925842      0.4343567      0.5713654
C1        0.6464844      0.5277634      0.6320648
C1        0.7401428      0.3738937      0.5717163
C1        0.5864792      0.5277634      0.5715103
C1        0.7401428      0.4344635      0.6317215
C1        0.6466293      0.2808990      0.5719681
C1        0.4932785      0.3742905      0.6318741
C1        0.6467361      0.3737030      0.4778137
C1        0.5862885      0.3740997      0.7253799
C1        0.5866852      0.4342575      0.4785156
C1        0.6468353      0.4341049      0.7253799
C1        0.7110977      0.4052124      0.5070190
C1        0.6175842      0.3093414      0.6963806
C1        0.5214844      0.4027634      0.5070648
C1        0.6151276      0.4989090      0.6967316
C1        0.7114944      0.4027634      0.6965256
C1        0.6151276      0.3094482      0.5067215
C1        0.5215836      0.4059143      0.6969833
C1        0.6182785      0.4993668      0.5068741
C1        0.5217361      0.4987640      0.6028290
C1        0.7112885      0.4991150      0.6003647
C1        0.7117386      0.3092575      0.6035767
C1        0.5218353      0.3091507      0.6003647
C1        0.3360672      0.2801971      0.6319733
C1        0.2425537      0.4343567      0.5713654
C1        0.3964691      0.5277634      0.6320648
C1        0.4901276      0.3738937      0.5717163
C1        0.3364792      0.5277634      0.5715103
C1        0.4901276      0.4344635      0.6317215
C1        0.3966141      0.2808990      0.5719681
C1        0.2432632      0.3742905      0.6318741
C1        0.3967209      0.3737030      0.4778137
C1        0.3362732      0.3740997      0.7253799
C1        0.3366699      0.4342575      0.4785156
C1        0.3968201      0.4341049      0.7253799
C1        0.4610672      0.4052124      0.5070190
C1        0.3675690      0.3093414      0.6963806
C1        0.2714539      0.4027634      0.5070648
C1        0.3651276      0.4989090      0.6967316
C1        0.4614792      0.4027634      0.6965256
C1        0.3651276      0.3094482      0.5067215
C1        0.2715530      0.4059143      0.6969833
C1        0.3682785      0.4993668      0.5068741
C1        0.2717056      0.4987640      0.6028290
C1        0.4612732      0.4991150      0.6003647
C1        0.4617157      0.3092575      0.6035767
C1        0.2718048      0.3091507      0.6003647
C1        0.5860825      0.5302124      0.3819580
C1        0.4925842      0.6843719      0.3213501
C1        0.6464844      0.7777786      0.3820648
C1        0.7401428      0.6239243      0.3217010
C1        0.5864792      0.7777786      0.3214951
C1        0.7401428      0.6844788      0.3817062
C1        0.6466293      0.5309143      0.3219528
C1        0.4932785      0.6243210      0.3818588
C1        0.6467361      0.6237183      0.2277985
C1        0.5862885      0.6241150      0.4753494
C1        0.6468353      0.6841202      0.4753494
C1        0.7110977      0.6552200      0.2570038
C1        0.6175842      0.5593719      0.4463654
C1        0.5214844      0.6527634      0.2570496
C1        0.6151276      0.7489243      0.4467010
C1        0.7114944      0.6527634      0.4465103
C1        0.6151276      0.5594788      0.2566986
C1        0.5215836      0.6559143      0.4469528
C1        0.6182785      0.7493820      0.2568588
C1        0.5217361      0.7487793      0.3528137
C1        0.7112885      0.7491302      0.3503494
C1        0.7117386      0.5592728      0.3535614
C1        0.5218353      0.5591660      0.3503494
C1        0.3360672      0.5302124      0.3819580
C1        0.2425537      0.6843719      0.3213501
C1        0.3964691      0.7777786      0.3820648
C1        0.4901276      0.6239243      0.3217010
C1        0.3364792      0.7777786      0.3214951
C1        0.4901276      0.6844788      0.3817062
C1        0.3966141      0.5309143      0.3219528
C1        0.2432632      0.6243210      0.3818588
C1        0.3967209      0.6237183      0.2277985
C1        0.3362732      0.6241150      0.4753494
C1        0.3366699      0.6842728      0.2285004
C1        0.3968201      0.6841202      0.4753494
C1        0.4610672      0.6552200      0.2570038
C1        0.3675690      0.5593719      0.4463654
C1        0.2714539      0.6527634      0.2570496
C1        0.3651276      0.7489243      0.4467010
C1        0.4614792      0.6527634      0.4465103
C1        0.3651276      0.5594788      0.2566986
C1        0.2715530      0.6559143      0.4469528
C1        0.3682785      0.7493820      0.2568588
C1        0.2717056      0.7487793      0.3528137
C1        0.4612732      0.7491302      0.3503494
C1        0.4617157      0.5592728      0.3535614
C1        0.2718048      0.5591660      0.3503494
C1        0.5860825      0.2801971      0.3819580
C1        0.4925842      0.4343567      0.3213501
C1        0.6464844      0.5277634      0.3820648
C1        0.7401428      0.3738937      0.3217010
C1        0.5864792      0.5277634      0.3214951
C1        0.7401428      0.4344635      0.3817062
C1        0.6466293      0.2808990      0.3219528
C1        0.4932785      0.3742905      0.3818588
C1        0.6467361      0.3737030      0.2277985
C1        0.5862885      0.3740997      0.4753494
C1        0.5866852      0.4342575      0.2285004
C1        0.6468353      0.4341049      0.4753494
C1        0.7110977      0.4052124      0.2570038
C1        0.6175842      0.3093414      0.4463654
C1        0.5214844      0.4027634      0.2570496
C1        0.6151276      0.4989090      0.4467010
C1        0.7114944      0.4027634      0.4465103
C1        0.6151276      0.3094482      0.2566986
C1        0.5215836      0.4059143      0.4469528
C1        0.6182785      0.4993668      0.2568588
C1        0.5217361      0.4987640      0.3528137
C1        0.7112885      0.4991150      0.3503494
C1        0.7117386      0.3092575      0.3535614
C1        0.5218353      0.3091507      0.3503494
C1        0.5862885      0.6241150      0.2253494
C1        0.6468353      0.6841202      0.2253494
C1        0.3362732      0.6241150      0.2253494
C1        0.3968201      0.6841202      0.2253494
C1        0.5862885      0.3740997      0.2253494
C1        0.6468353      0.4341049      0.2253494
C1        0.3362732      0.3740997      0.2253494
C1        0.3968201      0.4341049      0.2253494
C1        0.6464844      0.2777481      0.6320648
C1        0.5864792      0.2777481      0.5715103
C1        0.6151276      0.2488937      0.6967316
C1        0.6182785      0.2493515      0.5068741
C1        0.5217361      0.2487488      0.6028290
C1        0.7112885      0.2490997      0.6003647
C1        0.3964691      0.2777481      0.6320648
C1        0.3364792      0.2777481      0.5715103
C1        0.3651276      0.2488937      0.6967316
C1        0.3682785      0.2493515      0.5068741
C1        0.2717056      0.2487488      0.6028290
C1        0.4612732      0.2490997      0.6003647
C1        0.6464844      0.2777481      0.3820648
C1        0.5864792      0.2777481      0.3214951
C1        0.6151276      0.2488937      0.4467010
C1        0.5217361      0.2487488      0.3528137
C1        0.7112885      0.2490997      0.3503494
C1        0.3964691      0.2777481      0.3820648
C1        0.3364792      0.2777481      0.3214951
C1        0.3651276      0.2488937      0.4467010
C1        0.3682785      0.2493515      0.2568588
C1        0.2717056      0.2487488      0.3528137
C1        0.4612732      0.2490997      0.3503494
C1        0.7717361      0.2487488      0.6028290
C1        0.7717361      0.2487488      0.3528137
C1        0.2401123      0.6239243      0.5717163
C1        0.2401123      0.6844788      0.6317215
C1        0.2401123      0.3738937      0.5717163
C1        0.2401123      0.4344635      0.6317215
C1        0.2401123      0.6239243      0.3217010
C1        0.2401123      0.6844788      0.3817062
C1        0.2401123      0.3738937      0.3217010
C1        0.2401123      0.4344635      0.3817062
C1        0.7425842      0.4343567      0.3213501
C1        0.7432938      0.3742905      0.3818588
C1        0.7714844      0.4027634      0.2570496
C1        0.7717361      0.4987640      0.3528137
C1        0.7718353      0.3091507      0.3503494
C1        0.7425842      0.6843719      0.5713654
C1        0.7432938      0.6243210      0.6318741
C1        0.7714844      0.6527634      0.5070648
C1        0.7715836      0.6559143      0.6969833
C1        0.7717361      0.7487793      0.6028290
C1        0.7718353      0.5591660      0.6003647
C1        0.7425842      0.4343567      0.5713654
C1        0.7432938      0.3742905      0.6318741
C1        0.7714844      0.4027634      0.5070648
C1        0.7715836      0.4059143      0.6969833
C1        0.7717361      0.4987640      0.6028290
C1        0.7718353      0.3091507      0.6003647
C1        0.7425842      0.6843719      0.3213501
C1        0.7432938      0.6243210      0.3818588
C1        0.7714844      0.6527634      0.2570496
C1        0.7715836      0.6559143      0.4469528
C1        0.7717361      0.7487793      0.3528137
C1        0.7718353      0.5591660      0.3503494
C1        0.3360672      0.7802200      0.3819580
C1        0.3966141      0.7809296      0.3219528
C1        0.5860825      0.7802200      0.6319733
C1        0.6466293      0.7809296      0.5719681
C1        0.3360672      0.7802200      0.6319733
C1        0.3966141      0.7809296      0.5719681
C1        0.6466293      0.7809296      0.3219528
C1        0.6182785      0.2493515      0.7568893
C1        0.3682785      0.2493515      0.7568893
C1        0.3967209      0.3737030      0.7278290
C1        0.3366699      0.4342575      0.7285309
C1        0.4610672      0.4052124      0.7570343
C1        0.2714539      0.4027634      0.7570801
C1        0.3651276      0.3094482      0.7567215
C1        0.3682785      0.4993668      0.7568893
C1        0.6467361      0.6237183      0.7278290
C1        0.5866852      0.6842728      0.7285309
C1        0.7110977      0.6552200      0.7570343
C1        0.5214844      0.6527634      0.7570801
C1        0.6151276      0.5594788      0.7567215
C1        0.6182785      0.7493820      0.7568893
C1        0.3967209      0.6237183      0.7278290
C1        0.3366699      0.6842728      0.7285309
C1        0.4610672      0.6552200      0.7570343
C1        0.3651276      0.5594788      0.7567215
C1        0.3682785      0.7493820      0.7568893
C1        0.6467361      0.3737030      0.7278290
C1        0.5866852      0.4342575      0.7285309
C1        0.7110977      0.4052124      0.7570343
C1        0.5214844      0.4027634      0.7570801
C1        0.6151276      0.3094482      0.7567215
C1        0.6182785      0.4993668      0.7568893
C1        0.7714844      0.4027634      0.7570801
C1        0.7714844      0.6527634      0.7570801
C3        0.3429642      0.2998505      0.3752670
C3        0.2622147      0.4276657      0.3282700
C3        0.3891296      0.5086670      0.3743057
C3        0.4708176      0.3812561      0.3290634
C3        0.3438644      0.5085068      0.3289108
C3        0.4710236      0.4267044      0.3743668
C3        0.3883133      0.2994995      0.3300018
C3        0.3900223      0.3806076      0.2474518
C3        0.3437195      0.3815613      0.4561691
C3        0.3447800      0.4259567      0.2471466
C3        0.3890686      0.4267654      0.4562531
C3        0.4679642      0.4249115      0.2502975
C3        0.3872147      0.3026505      0.4532700
C3        0.2641144      0.3836060      0.2492905
C3        0.3458633      0.5062561      0.4541016
C3        0.4688644      0.3835068      0.4539108
C3        0.3460236      0.3017044      0.2493515
C3        0.2633133      0.4245148      0.4550018
C3        0.3868713      0.5074158      0.2486038
C3        0.2650070      0.5056076      0.3725128
C3        0.4686737      0.5065613      0.3311691
C3        0.4697189      0.3009567      0.3721161
C3        0.2640686      0.3017960      0.3312531
C3        0.5929794      0.5498657      0.6252670
C3        0.5122299      0.6776657      0.5782700
C3        0.6391296      0.7586823      0.6243210
C3        0.7208328      0.6312714      0.5790787
C3        0.5938797      0.7585373      0.5789108
C3        0.7210388      0.6767197      0.6243668
C3        0.6383286      0.5495148      0.5800171
C3        0.5118713      0.6324158      0.6236191
C3        0.6400223      0.6306229      0.4974670
C3        0.5937347      0.6315613      0.7061768
C3        0.5947800      0.6759720      0.4971771
C3        0.6390839      0.6767654      0.7062836
C3        0.7179947      0.6749268      0.5003204
C3        0.6372299      0.5526657      0.7032776
C3        0.5141296      0.6336212      0.4993210
C3        0.5958786      0.7562866      0.7041321
C3        0.7188950      0.6335220      0.7039261
C3        0.5960236      0.5517197      0.4993668
C3        0.5133286      0.6745148      0.7050323
C3        0.6368713      0.7574310      0.4986191
C3        0.5150223      0.7556381      0.6225128
C3        0.7186890      0.7565765      0.5811691
C3        0.7197495      0.5509720      0.6221161
C3        0.5140839      0.5518265      0.5812683
C3        0.3429642      0.5498657      0.6252670
C3        0.2622147      0.6776657      0.5782700
C3        0.3891296      0.7586823      0.6243210
C3        0.4708176      0.6312714      0.5790787
C3        0.3438644      0.7585373      0.5789108
C3        0.4710236      0.6767197      0.6243668
C3        0.3883133      0.5495148      0.5800171
C3        0.2618637      0.6324158      0.6236191
C3        0.3900223      0.6306229      0.4974670
C3        0.3437195      0.6315613      0.7061768
C3        0.3447800      0.6759720      0.4971771
C3        0.3890686      0.6767654      0.7062836
C3        0.4679642      0.6749268      0.5003204
C3        0.3872147      0.5526657      0.7032776
C3        0.2641144      0.6336212      0.4993210
C3        0.3458633      0.7562866      0.7041321
C3        0.4688644      0.6335220      0.7039261
C3        0.3460236      0.5517197      0.4993668
C3        0.2633133      0.6745148      0.7050323
C3        0.3868713      0.7574310      0.4986191
C3        0.2650070      0.7556381      0.6225128
C3        0.4686737      0.7565765      0.5811691
C3        0.4697189      0.5509720      0.6221161
C3        0.2640686      0.5518265      0.5812683
C3        0.5929794      0.2998505      0.6252670
C3        0.5122299      0.4276657      0.5782700
C3        0.6391296      0.5086670      0.6243210
C3        0.7208328      0.3812561      0.5790787
C3        0.5938797      0.5085068      0.5789108
C3        0.7210388      0.4267044      0.6243668
C3        0.6383286      0.2994995      0.5800171
C3        0.5118713      0.3824158      0.6236191
C3        0.6400223      0.3806076      0.4974670
C3        0.5937347      0.3815613      0.7061768
C3        0.5947800      0.4259567      0.4971771
C3        0.6390839      0.4267654      0.7062836
C3        0.7179947      0.4249115      0.5003204
C3        0.6372299      0.3026505      0.7032776
C3        0.5141296      0.3836060      0.4993210
C3        0.5958786      0.5062561      0.7041321
C3        0.7188950      0.3835068      0.7039261
C3        0.5960236      0.3017044      0.4993668
C3        0.5133286      0.4245148      0.7050323
C3        0.6368713      0.5074158      0.4986191
C3        0.5150223      0.5056076      0.6225128
C3        0.7186890      0.5065613      0.5811691
C3        0.7197495      0.3009567      0.6221161
C3        0.5140839      0.3017960      0.5812683
C3        0.3429642      0.2998505      0.6252670
C3        0.2622147      0.4276657      0.5782700
C3        0.3891296      0.5086670      0.6243210
C3        0.4708176      0.3812561      0.5790787
C3        0.3438644      0.5085068      0.5789108
C3        0.4710236      0.4267044      0.6243668
C3        0.3883133      0.2994995      0.5800171
C3        0.2618637      0.3824158      0.6236191
C3        0.3900223      0.3806076      0.4974670
C3        0.3437195      0.3815613      0.7061768
C3        0.3447800      0.4259567      0.4971771
C3        0.3890686      0.4267654      0.7062836
C3        0.4679642      0.4249115      0.5003204
C3        0.3872147      0.3026505      0.7032776
C3        0.2641144      0.3836060      0.4993210
C3        0.3458633      0.5062561      0.7041321
C3        0.4688644      0.3835068      0.7039261
C3        0.3460236      0.3017044      0.4993668
C3        0.2633133      0.4245148      0.7050323
C3        0.3868713      0.5074158      0.4986191
C3        0.2650070      0.5056076      0.6225128
C3        0.4686737      0.5065613      0.5811691
C3        0.4697189      0.3009567      0.6221161
C3        0.2640686      0.3017960      0.5812683
C3        0.5929794      0.5498657      0.3752670
C3        0.5122299      0.6776657      0.3282700
C3        0.6391296      0.7586823      0.3743057
C3        0.7208328      0.6312714      0.3290634
C3        0.5938797      0.7585373      0.3289108
C3        0.7210388      0.6767197      0.3743668
C3        0.6383286      0.5495148      0.3300018
C3        0.5118713      0.6324158      0.3736191
C3        0.6400223      0.6306229      0.2474518
C3        0.5937347      0.6315613      0.4561691
C3        0.6390839      0.6767654      0.4562531
C3        0.7179947      0.6749268      0.2502975
C3        0.6372299      0.5526657      0.4532700
C3        0.5141296      0.6336212      0.2492905
C3        0.5958786      0.7562866      0.4541016
C3        0.7188950      0.6335220      0.4539108
C3        0.5960236      0.5517197      0.2493515
C3        0.5133286      0.6745148      0.4550018
C3        0.6368713      0.7574310      0.2486038
C3        0.5150223      0.7556381      0.3725128
C3        0.7186890      0.7565765      0.3311691
C3        0.7197495      0.5509720      0.3721161
C3        0.5140839      0.5518265      0.3312531
C3        0.3429642      0.5498657      0.3752670
C3        0.2622147      0.6776657      0.3282700
C3        0.3891296      0.7586823      0.3743057
C3        0.4708176      0.6312714      0.3290634
C3        0.3438644      0.7585373      0.3289108
C3        0.4710236      0.6767197      0.3743668
C3        0.3883133      0.5495148      0.3300018
C3        0.2618637      0.6324158      0.3736191
C3        0.3900223      0.6306229      0.2474518
C3        0.3437195      0.6315613      0.4561691
C3        0.3447800      0.6759720      0.2471466
C3        0.3890686      0.6767654      0.4562531
C3        0.4679642      0.6749268      0.2502975
C3        0.3872147      0.5526657      0.4532700
C3        0.2641144      0.6336212      0.2492905
C3        0.3458633      0.7562866      0.4541016
C3        0.4688644      0.6335220      0.4539108
C3        0.3460236      0.5517197      0.2493515
C3        0.2633133      0.6745148      0.4550018
C3        0.3868713      0.7574310      0.2486038
C3        0.2650070      0.7556381      0.3725128
C3        0.4686737      0.7565765      0.3311691
C3        0.4697189      0.5509720      0.3721161
C3        0.2640686      0.5518265      0.3312531
C3        0.5929794      0.2998505      0.3752670
C3        0.5122299      0.4276657      0.3282700
C3        0.6391296      0.5086670      0.3743057
C3        0.7208328      0.3812561      0.3290634
C3        0.5938797      0.5085068      0.3289108
C3        0.7210388      0.4267044      0.3743668
C3        0.6383286      0.2994995      0.3300018
C3        0.5118713      0.3824158      0.3736191
C3        0.6400223      0.3806076      0.2474518
C3        0.5937347      0.3815613      0.4561691
C3        0.5947800      0.4259567      0.2471466
C3        0.6390839      0.4267654      0.4562531
C3        0.7179947      0.4249115      0.2502975
C3        0.6372299      0.3026505      0.4532700
C3        0.5141296      0.3836060      0.2492905
C3        0.5958786      0.5062561      0.4541016
C3        0.7188950      0.3835068      0.4539108
C3        0.5960236      0.3017044      0.2493515
C3        0.5133286      0.4245148      0.4550018
C3        0.6368713      0.5074158      0.2486038
C3        0.5150223      0.5056076      0.3725128
C3        0.7186890      0.5065613      0.3311691
C3        0.7197495      0.3009567      0.3721161
C3        0.5140839      0.3017960      0.3312531
C3        0.5937347      0.6315613      0.2061539
C3        0.6390839      0.6767654      0.2062531
C3        0.3437195      0.6315613      0.2061539
C3        0.3890686      0.6767654      0.2062531
C3        0.5937347      0.3815613      0.2061539
C3        0.6390839      0.4267654      0.2062531
C3        0.3437195      0.3815613      0.2061539
C3        0.3890686      0.4267654      0.2062531
C3        0.6391296      0.2586517      0.6243210
C3        0.5938797      0.2585068      0.5789108
C3        0.5958786      0.2562561      0.7041321
C3        0.6368713      0.2574005      0.4986191
C3        0.5150223      0.2556076      0.6225128
C3        0.7186890      0.2565460      0.5811691
C3        0.3891296      0.2586517      0.6243210
C3        0.3438644      0.2585068      0.5789108
C3        0.3458633      0.2562561      0.7041321
C3        0.3868713      0.2574005      0.4986191
C3        0.2650070      0.2556076      0.6225128
C3        0.4686737      0.2565460      0.5811691
C3        0.6391296      0.2586517      0.3743057
C3        0.5938797      0.2585068      0.3289108
C3        0.5958786      0.2562561      0.4541016
C3        0.5150223      0.2556076      0.3725128
C3        0.7186890      0.2565460      0.3311691
C3        0.3891296      0.2586517      0.3743057
C3        0.3438644      0.2585068      0.3289108
C3        0.3458633      0.2562561      0.4541016
C3        0.3868713      0.2574005      0.2486038
C3        0.2650070      0.2556076      0.3725128
C3        0.4686737      0.2565460      0.3311691
C3        0.7650375      0.2556076      0.6225128
C3        0.7650375      0.2556076      0.3725128
C3        0.2208099      0.6312714      0.5790787
C3        0.2210159      0.6767197      0.6243668
C3        0.2208099      0.3812561      0.5790787
C3        0.2210159      0.4267044      0.6243668
C3        0.2208099      0.6312714      0.3290634
C3        0.2210159      0.6767197      0.3743668
C3        0.2208099      0.3812561      0.3290634
C3        0.2210159      0.4267044      0.3743668
C3        0.7622452      0.4276657      0.3282700
C3        0.7618866      0.3824158      0.3736191
C3        0.7641373      0.3836060      0.2492905
C3        0.7650375      0.5056076      0.3725128
C3        0.7640991      0.3017960      0.3312531
C3        0.7622452      0.6776657      0.5782700
C3        0.7618866      0.6324158      0.6236191
C3        0.7641373      0.6336212      0.4993210
C3        0.7633438      0.6745148      0.7050323
C3        0.7650375      0.7556381      0.6225128
C3        0.7640991      0.5518265      0.5812683
C3        0.7622452      0.4276657      0.5782700
C3        0.7618866      0.3824158      0.6236191
C3        0.7641373      0.3836060      0.4993210
C3        0.7633438      0.4245148      0.7050323
C3        0.7650375      0.5056076      0.6225128
C3        0.7640991      0.3017960      0.5812683
C3        0.7622452      0.6776657      0.3282700
C3        0.7618866      0.6324158      0.3736191
C3        0.7641373      0.6336212      0.2492905
C3        0.7633438      0.6745148      0.4550018
C3        0.7650375      0.7556381      0.3725128
C3        0.7640991      0.5518265      0.3312531
C3        0.3429642      0.7998810      0.3752670
C3        0.3883133      0.7995300      0.3300018
C3        0.5929794      0.7998810      0.6252670
C3        0.6383286      0.7995300      0.5800171
C3        0.3429642      0.7998810      0.6252670
C3        0.3883133      0.7995300      0.5800171
C3        0.6383286      0.7995300      0.3300018
C3        0.6368713      0.2574005      0.7486343
C3        0.3868713      0.2574005      0.7486343
C3        0.3900223      0.3806076      0.7474823
C3        0.3447800      0.4259567      0.7471771
C3        0.4679642      0.4249115      0.7503204
C3        0.2641144      0.3836060      0.7493210
C3        0.3460236      0.3017044      0.7493820
C3        0.3868713      0.5074158      0.7486343
C3        0.6400223      0.6306229      0.7474823
C3        0.5947800      0.6759720      0.7471771
C3        0.7179947      0.6749268      0.7503204
C3        0.5141296      0.6336212      0.7493210
C3        0.5960236      0.5517197      0.7493820
C3        0.6368713      0.7574310      0.7486343
C3        0.3900223      0.6306229      0.7474823
C3        0.3447800      0.6759720      0.7471771
C3        0.4679642      0.6749268      0.7503204
C3        0.3460236      0.5517197      0.7493820
C3        0.3868713      0.7574310      0.7486343
C3        0.6400223      0.3806076      0.7474823
C3        0.5947800      0.4259567      0.7471771
C3        0.7179947      0.4249115      0.7503204
C3        0.5141296      0.3836060      0.7493210
C3        0.5960236      0.3017044      0.7493820
C3        0.6368713      0.5074158      0.7486343
C3        0.7641373      0.3836060      0.7493210
C3        0.7641373      0.6336212      0.7493210
Ne        0.3496399      0.5222626      0.4013901
Ne        0.3727112      0.5122757      0.4270401
Ne        0.3829041      0.5353394      0.4016800
Ne        0.3595963      0.5455017      0.4271317
Ne        0.4845963      0.4204941      0.3021164
Ne        0.4746399      0.3972702      0.2763901
Ne        0.4977112      0.3872757      0.3020248
Ne        0.5078964      0.4103012      0.2766800
Ne        0.3499908      0.2856827      0.3020172
Ne        0.3729935      0.2962570      0.2764435
Ne        0.3836288      0.2734070      0.3019104
Ne        0.3607483      0.2625961      0.2767410
Ne        0.4857025      0.3875961      0.4017563
Ne        0.4749832      0.4107513      0.4270325
Ne        0.4979935      0.4212570      0.4014587
Ne        0.5086288      0.3984222      0.4269257
Ne        0.4164505      0.4205399      0.2329330
Ne        0.4418793      0.3972473      0.2430878
Ne        0.4161453      0.3872757      0.2199097
Ne        0.3496475      0.3543777      0.2328949
Ne        0.3726730      0.3290787      0.2431183
Ne        0.3828659      0.3544998      0.2198257
Ne        0.3167572      0.3876343      0.2332840
Ne        0.2911606      0.4106293      0.2438660
Ne        0.3166809      0.4212646      0.2210083
Ne        0.3836212      0.4538193      0.2332611
Ne        0.3607407      0.4793167      0.2438583
Ne        0.3499603      0.4541168      0.2209854
Ne        0.4846344      0.4537811      0.3348694
Ne        0.4746552      0.4794083      0.3579102
Ne        0.4977264      0.4540863      0.3681412
Ne        0.5078735      0.4795227      0.3448410
Ne        0.4857407      0.3543091      0.3688736
Ne        0.4749680      0.3291550      0.3460007
Ne        0.4981079      0.3544159      0.3352890
Ne        0.5086365      0.3288422      0.3582764
Ne        0.3168716      0.5222397      0.3681030
Ne        0.2910843      0.5122681      0.3448792
Ne        0.3167953      0.5353622      0.3348770
Ne        0.2913895      0.5455551      0.3579483
Ne        0.4165115      0.5233994      0.3351974
Ne        0.4417648      0.5126343      0.3583069
Ne        0.4161758      0.5356750      0.3688660
Ne        0.4416809      0.5462723      0.3459854
Ne        0.5996552      0.7722931      0.6514053
Ne        0.6227112      0.7622910      0.6770554
Ne        0.6329041      0.7853699      0.6516953
Ne        0.7346268      0.6705017      0.5521240
Ne        0.7246704      0.6472855      0.5264053
Ne        0.7477264      0.6372833      0.5520554
Ne        0.7579117      0.6603012      0.5266953
Ne        0.5999985      0.5356979      0.5520477
Ne        0.6229935      0.5462723      0.5264664
Ne        0.6336212      0.5234222      0.5519257
Ne        0.6107483      0.5126038      0.5267715
Ne        0.7357254      0.6376038      0.6517639
Ne        0.7250061      0.6607513      0.6770477
Ne        0.7480087      0.6712723      0.6514664
Ne        0.7586441      0.6484222      0.6769409
Ne        0.6664658      0.6705551      0.4829483
Ne        0.6918945      0.6472549      0.4931107
Ne        0.6661682      0.6372910      0.4699249
Ne        0.6917877      0.6603546      0.4598923
Ne        0.5996628      0.6043930      0.4829102
Ne        0.6226730      0.5790863      0.4931335
Ne        0.6328812      0.6045151      0.4698410
Ne        0.6096497      0.5787888      0.4598770
Ne        0.5667572      0.6376495      0.4832993
Ne        0.5411758      0.6606293      0.4938812
Ne        0.5666809      0.6712646      0.4710236
Ne        0.5414886      0.6483841      0.4601974
Ne        0.6336365      0.7038193      0.4832764
Ne        0.6107559      0.7293320      0.4938736
Ne        0.5999603      0.7041321      0.4709930
Ne        0.6231079      0.7294464      0.4602890
Ne        0.7346649      0.7037964      0.5848923
Ne        0.7246628      0.7294159      0.6079254
Ne        0.7477341      0.7040939      0.6181412
Ne        0.7578812      0.7295303      0.5948563
Ne        0.7357712      0.6043167      0.6188736
Ne        0.7249832      0.5791702      0.5960007
Ne        0.7481232      0.6044464      0.5852890
Ne        0.7586441      0.5788574      0.6082916
Ne        0.5668716      0.7722702      0.6181107
Ne        0.5411148      0.7623062      0.5948944
Ne        0.5668106      0.7853775      0.5848846
Ne        0.6665421      0.7734146      0.5852051
Ne        0.6917801      0.7626648      0.6083145
Ne        0.6661911      0.7857056      0.6188812
Ne        0.3496399      0.7722931      0.6514053
Ne        0.3727112      0.7622910      0.6770554
Ne        0.3829041      0.7853699      0.6516953
Ne        0.4977112      0.6372833      0.5520554
Ne        0.5078964      0.6603012      0.5266953
Ne        0.4845963      0.6705093      0.5521240
Ne        0.4746399      0.6472778      0.5263977
Ne        0.3499908      0.5356979      0.5520477
Ne        0.3729935      0.5462723      0.5264664
Ne        0.3836212      0.5234222      0.5519257
Ne        0.3607483      0.5126038      0.5267715
Ne        0.4979935      0.6712723      0.6514664
Ne        0.5086288      0.6484222      0.6769409
Ne        0.4857025      0.6376038      0.6517639
Ne        0.4749908      0.6607513      0.6770477
Ne        0.4164429      0.6705551      0.4829483
Ne        0.4418793      0.6472549      0.4931107
Ne        0.4161453      0.6372833      0.4699249
Ne        0.4417725      0.6603546      0.4598923
Ne        0.3496475      0.6043930      0.4829102
Ne        0.3726730      0.5790863      0.4931335
Ne        0.3828659      0.6045074      0.4698410
Ne        0.3596344      0.5787888      0.4598770
Ne        0.3167572      0.6376419      0.4832993
Ne        0.2911606      0.6606293      0.4938812
Ne        0.3166809      0.6712646      0.4710236
Ne        0.2914581      0.6483841      0.4601898
Ne        0.3836212      0.7038193      0.4832764
Ne        0.3607407      0.7293320      0.4938736
Ne        0.3499603      0.7041321      0.4709930
Ne        0.3731079      0.7294464      0.4602814
Ne        0.4977264      0.7040939      0.6181412
Ne        0.5078735      0.7295380      0.5948563
Ne        0.4846344      0.7037964      0.5848846
Ne        0.4746475      0.7294159      0.6079254
Ne        0.4981079      0.6044464      0.5852890
Ne        0.5086365      0.5788651      0.6082916
Ne        0.4857407      0.6043167      0.6188736
Ne        0.4749680      0.5791702      0.5960007
Ne        0.3168716      0.7722702      0.6181183
Ne        0.2910919      0.7623062      0.5948944
Ne        0.3167953      0.7853775      0.5848846
Ne        0.4165115      0.7734146      0.5852051
Ne        0.4417648      0.7626648      0.6083145
Ne        0.4161758      0.7857056      0.6188812
Ne        0.6329041      0.5353394      0.6516953
Ne        0.6096115      0.5455017      0.6771393
Ne        0.5996552      0.5222702      0.6514053
Ne        0.6227112      0.5122757      0.6770554
Ne        0.7346268      0.4204941      0.5521240
Ne        0.7246704      0.3972702      0.5264053
Ne        0.7477264      0.3872681      0.5520554
Ne        0.7579117      0.4103012      0.5266953
Ne        0.6336212      0.7734375      0.5519257
Ne        0.6107483      0.7626190      0.5267715
Ne        0.5999985      0.7857285      0.5520477
Ne        0.7357254      0.3876038      0.6517715
Ne        0.7250061      0.4107513      0.6770477
Ne        0.7480087      0.4212570      0.6514664
Ne        0.7586441      0.3984222      0.6769409
Ne        0.6664734      0.4205399      0.4829483
Ne        0.6918945      0.3972473      0.4931107
Ne        0.6661682      0.3872757      0.4699249
Ne        0.6917877      0.4103546      0.4598923
Ne        0.5996628      0.3543777      0.4829102
Ne        0.6226730      0.3290710      0.4931335
Ne        0.6328812      0.3544998      0.4698410
Ne        0.6096497      0.3287735      0.4598770
Ne        0.5667572      0.3876343      0.4832993
Ne        0.5411758      0.4106293      0.4938812
Ne        0.5666809      0.4212646      0.4710236
Ne        0.5414886      0.3983841      0.4601974
Ne        0.6336365      0.4538193      0.4832764
Ne        0.6107559      0.4793167      0.4938736
Ne        0.5999603      0.4541168      0.4709930
Ne        0.6231079      0.4794312      0.4602890
Ne        0.7346649      0.4537888      0.5848846
Ne        0.7246704      0.4794083      0.6079254
Ne        0.7477341      0.4540863      0.6181412
Ne        0.7578735      0.4795227      0.5948563
Ne        0.7357712      0.3543015      0.6188736
Ne        0.7249832      0.3291550      0.5960007
Ne        0.7481232      0.3544235      0.5852890
Ne        0.7586441      0.3288422      0.6082916
Ne        0.5668106      0.5353622      0.5848846
Ne        0.5414124      0.5455551      0.6079636
Ne        0.5668793      0.5222397      0.6181183
Ne        0.5411148      0.5122757      0.5948944
Ne        0.6661911      0.5356750      0.6188812
Ne        0.6916962      0.5462723      0.5959930
Ne        0.6665421      0.5233994      0.5852051
Ne        0.6917801      0.5126343      0.6083145
Ne        0.3829041      0.5353394      0.6516953
Ne        0.3595963      0.5455017      0.6771469
Ne        0.3496399      0.5222626      0.6514053
Ne        0.3727112      0.5122757      0.6770554
Ne        0.4977112      0.3872681      0.5520554
Ne        0.5078964      0.4103012      0.5266953
Ne        0.4845963      0.4204941      0.5521240
Ne        0.4746399      0.3972626      0.5263977
Ne        0.3836212      0.7734375      0.5519257
Ne        0.3607483      0.7626190      0.5267715
Ne        0.3499908      0.7857285      0.5520477
Ne        0.4979935      0.4212570      0.6514664
Ne        0.5086288      0.3984222      0.6769409
Ne        0.4857025      0.3875961      0.6517715
Ne        0.4749908      0.4107513      0.6770477
Ne        0.4161453      0.3872757      0.4699249
Ne        0.4417725      0.4103546      0.4598923
Ne        0.4164505      0.4205399      0.4829483
Ne        0.4418793      0.3972473      0.4931107
Ne        0.3828659      0.3544998      0.4698410
Ne        0.3596344      0.3287735      0.4598770
Ne        0.3496475      0.3543777      0.4829102
Ne        0.3726730      0.3290710      0.4931335
Ne        0.3166809      0.4212646      0.4710236
Ne        0.2914581      0.3983841      0.4601898
Ne        0.3167572      0.3876343      0.4832993
Ne        0.2911606      0.4106293      0.4938812
Ne        0.3499603      0.4541168      0.4709930
Ne        0.3731079      0.4794312      0.4602814
Ne        0.3836212      0.4538193      0.4832764
Ne        0.3607407      0.4793167      0.4938736
Ne        0.4977264      0.4540863      0.6181412
Ne        0.5078735      0.4795227      0.5948563
Ne        0.4846344      0.4537811      0.5848846
Ne        0.4746552      0.4794083      0.6079254
Ne        0.4981079      0.3544235      0.5852890
Ne        0.5086365      0.3288422      0.6082916
Ne        0.4857407      0.3543015      0.6188736
Ne        0.4749680      0.3291550      0.5960007
Ne        0.3167953      0.5353622      0.5848846
Ne        0.2913895      0.5455551      0.6079636
Ne        0.3168716      0.5222397      0.6181183
Ne        0.2910843      0.5122681      0.5948944
Ne        0.4161758      0.5356750      0.6188736
Ne        0.4416809      0.5462723      0.5959930
Ne        0.4165115      0.5233994      0.5852051
Ne        0.4417648      0.5126343      0.6083145
Ne        0.6227112      0.7622910      0.4270401
Ne        0.6329041      0.7853699      0.4016800
Ne        0.7346268      0.6705093      0.3021164
Ne        0.7246704      0.6472855      0.2763901
Ne        0.7477264      0.6372910      0.3020248
Ne        0.7579117      0.6603012      0.2766876
Ne        0.5999985      0.5356979      0.3020172
Ne        0.6229935      0.5462723      0.2764435
Ne        0.6336288      0.5234222      0.3019104
Ne        0.6107483      0.5126038      0.2767410
Ne        0.7357254      0.6376038      0.4017487
Ne        0.7250061      0.6607513      0.4270325
Ne        0.7480087      0.6712723      0.4014587
Ne        0.7586441      0.6484222      0.4269257
Ne        0.6664658      0.6705551      0.2329330
Ne        0.6918945      0.6472549      0.2430878
Ne        0.6661682      0.6372910      0.2199097
Ne        0.5996628      0.6043930      0.2328949
Ne        0.6226730      0.5790939      0.2431183
Ne        0.6328812      0.6045151      0.2198257
Ne        0.5667572      0.6376495      0.2332840
Ne        0.5411758      0.6606293      0.2438660
Ne        0.6336365      0.7038193      0.2332611
Ne        0.6107559      0.7293320      0.2438583
Ne        0.7346649      0.7037964      0.3348770
Ne        0.7246628      0.7294159      0.3579102
Ne        0.7477341      0.7040939      0.3681412
Ne        0.7578812      0.7295303      0.3448410
Ne        0.7357635      0.6043243      0.3688736
Ne        0.7249832      0.5791702      0.3460007
Ne        0.7481232      0.6044464      0.3352814
Ne        0.7586441      0.5788574      0.3582764
Ne        0.5411148      0.7623062      0.3448792
Ne        0.5668106      0.7853775      0.3348694
Ne        0.6665421      0.7734070      0.3351974
Ne        0.6917801      0.7626648      0.3582993
Ne        0.6661911      0.7857056      0.3688660
Ne        0.3496399      0.7722931      0.4013901
Ne        0.3727112      0.7622910      0.4270401
Ne        0.3829041      0.7853699      0.4016800
Ne        0.4977112      0.6372910      0.3020248
Ne        0.5078964      0.6603012      0.2766800
Ne        0.4845963      0.6705093      0.3021164
Ne        0.4746399      0.6472778      0.2763901
Ne        0.3836288      0.5234222      0.3019104
Ne        0.3607483      0.5126038      0.2767410
Ne        0.3499908      0.5356979      0.3020172
Ne        0.3729935      0.5462723      0.2764435
Ne        0.4979935      0.6712723      0.4014587
Ne        0.5086288      0.6484222      0.4269257
Ne        0.4857025      0.6376038      0.4017487
Ne        0.4749908      0.6607513      0.4270325
Ne        0.4164429      0.6705551      0.2329330
Ne        0.4418793      0.6472549      0.2430878
Ne        0.4161453      0.6372833      0.2199097
Ne        0.3496475      0.6043930      0.2328949
Ne        0.3726730      0.5790939      0.2431183
Ne        0.3828659      0.6045074      0.2198257
Ne        0.3167572      0.6376419      0.2332840
Ne        0.2911606      0.6606293      0.2438660
Ne        0.3166809      0.6712646      0.2210083
Ne        0.3836212      0.7038193      0.2332611
Ne        0.3607407      0.7293320      0.2438583
Ne        0.3499603      0.7041321      0.2209854
Ne        0.4977264      0.7040939      0.3681412
Ne        0.5078735      0.7295380      0.3448410
Ne        0.4846344      0.7037964      0.3348770
Ne        0.4746475      0.7294159      0.3579102
Ne        0.4981079      0.6044464      0.3352890
Ne        0.5086365      0.5788651      0.3582764
Ne        0.4857407      0.6043243      0.3688736
Ne        0.4749680      0.5791702      0.3460007
Ne        0.3168716      0.7722702      0.3681030
Ne        0.2910919      0.7623062      0.3448792
Ne        0.3167953      0.7853775      0.3348694
Ne        0.4165115      0.7734146      0.3351974
Ne        0.4417648      0.7626648      0.3582993
Ne        0.4161758      0.7857056      0.3688660
Ne        0.6329041      0.5353394      0.4016800
Ne        0.6096115      0.5455017      0.4271317
Ne        0.5996552      0.5222702      0.4013901
Ne        0.6227112      0.5122757      0.4270401
Ne        0.7346268      0.4204941      0.3021164
Ne        0.7246704      0.3972702      0.2763901
Ne        0.7477264      0.3872757      0.3020248
Ne        0.7579117      0.4103012      0.2766800
Ne        0.5999985      0.2856827      0.3020172
Ne        0.6229935      0.2962570      0.2764435
Ne        0.6336288      0.2734070      0.3019104
Ne        0.7357254      0.3876038      0.4017563
Ne        0.7250061      0.4107513      0.4270325
Ne        0.7480087      0.4212570      0.4014587
Ne        0.6664658      0.4205399      0.2329330
Ne        0.6918945      0.3972473      0.2430878
Ne        0.6661682      0.3872757      0.2199097
Ne        0.5996628      0.3543777      0.2328949
Ne        0.6226730      0.3290787      0.2431183
Ne        0.6328812      0.3545074      0.2198257
Ne        0.5667572      0.3876343      0.2332840
Ne        0.5411758      0.4106293      0.2438660
Ne        0.5666809      0.4212646      0.2210159
Ne        0.6336365      0.4538193      0.2332611
Ne        0.6107559      0.4793167      0.2438583
Ne        0.5999603      0.4541168      0.2209854
Ne        0.7346649      0.4537888      0.3348694
Ne        0.7246628      0.4794083      0.3579102
Ne        0.7477341      0.4540863      0.3681412
Ne        0.7578735      0.4795227      0.3448410
Ne        0.7357635      0.3543091      0.3688736
Ne        0.7249832      0.3291550      0.3460007
Ne        0.7481155      0.3544159      0.3352890
Ne        0.7586441      0.3288422      0.3582764
Ne        0.5668106      0.5353622      0.3348770
Ne        0.5414124      0.5455551      0.3579483
Ne        0.5668716      0.5222397      0.3681030
Ne        0.5411148      0.5122681      0.3448792
Ne        0.6661911      0.5356750      0.3688660
Ne        0.6916962      0.5462723      0.3459854
Ne        0.6665421      0.5233994      0.3351974
Ne        0.6917801      0.5126343      0.3582993
Ne        0.6329041      0.2853241      0.6516953
Ne        0.6096115      0.2954865      0.6771393
Ne        0.5996552      0.2722702      0.6514053
Ne        0.6227112      0.2622681      0.6770554
Ne        0.5668106      0.2853470      0.5848846
Ne        0.5414124      0.2955246      0.6079636
Ne        0.5668716      0.2722397      0.6181183
Ne        0.5411148      0.2622681      0.5948944
Ne        0.6661911      0.2856598      0.6188812
Ne        0.6916962      0.2962570      0.5959930
Ne        0.6665421      0.2733841      0.5852051
Ne        0.6917801      0.2626343      0.6083145
Ne        0.3829041      0.2853241      0.6516953
Ne        0.3595963      0.2954865      0.6771393
Ne        0.3496399      0.2722626      0.6514053
Ne        0.3727112      0.2622681      0.6770554
Ne        0.3167953      0.2853470      0.5848846
Ne        0.2913895      0.2955246      0.6079636
Ne        0.3168716      0.2722397      0.6181183
Ne        0.2910843      0.2622681      0.5948944
Ne        0.4161758      0.2856598      0.6188736
Ne        0.4416809      0.2962570      0.5959930
Ne        0.4165115      0.2733841      0.5852051
Ne        0.4417648      0.2626343      0.6083145
Ne        0.5999985      0.2856827      0.5520477
Ne        0.6229935      0.2962570      0.5264664
Ne        0.6336212      0.2734070      0.5519257
Ne        0.6107483      0.2625961      0.5267715
Ne        0.3499908      0.2856827      0.5520477
Ne        0.3729935      0.2962570      0.5264664
Ne        0.3836212      0.2734070      0.5519257
Ne        0.3607483      0.2625961      0.5267715
Ne        0.6329041      0.2853241      0.4016876
Ne        0.6096115      0.2954865      0.4271240
Ne        0.5996552      0.2722702      0.4013901
Ne        0.6227112      0.2622681      0.4270401
Ne        0.5668106      0.2853470      0.3348770
Ne        0.5414124      0.2955246      0.3579483
Ne        0.5668716      0.2722397      0.3681030
Ne        0.5411148      0.2622681      0.3448792
Ne        0.6661911      0.2856598      0.3688660
Ne        0.6916962      0.2962570      0.3459854
Ne        0.6665421      0.2733841      0.3351974
Ne        0.6917801      0.2626343      0.3582993
Ne        0.3829041      0.2853241      0.4016876
Ne        0.3595963      0.2954865      0.4271240
Ne        0.3496399      0.2722626      0.4013901
Ne        0.3727112      0.2622681      0.4270401
Ne        0.3167953      0.2853470      0.3348770
Ne        0.2913895      0.2955246      0.3579483
Ne        0.3168716      0.2722397      0.3681030
Ne        0.2910843      0.2622681      0.3448792
Ne        0.4161758      0.2856598      0.3688660
Ne        0.4416809      0.2962570      0.3459854
Ne        0.4165115      0.2733841      0.3351974
Ne        0.4417648      0.2626343      0.3582993
Ne        0.2476959      0.6372833      0.5520554
Ne        0.2578888      0.6603012      0.5266953
Ne        0.2345963      0.6705017      0.5521240
Ne        0.2479782      0.6712723      0.6514664
Ne        0.2586136      0.6484222      0.6769409
Ne        0.2356949      0.6376038      0.6517639
Ne        0.2476959      0.7041016      0.6181412
Ne        0.2578506      0.7295303      0.5948563
Ne        0.2346344      0.7037964      0.5848923
Ne        0.2480927      0.6044464      0.5852890
Ne        0.2586136      0.5788574      0.6082916
Ne        0.2357407      0.6043167      0.6188736
Ne        0.2476959      0.3872681      0.5520554
Ne        0.2578888      0.4103012      0.5266953
Ne        0.2345963      0.4204865      0.5521240
Ne        0.2479782      0.4212570      0.6514664
Ne        0.2586136      0.3984222      0.6769409
Ne        0.2356949      0.3876038      0.6517715
Ne        0.2476959      0.4540863      0.6181412
Ne        0.2578506      0.4795227      0.5948563
Ne        0.2346344      0.4537888      0.5848846
Ne        0.2480927      0.3544235      0.5852890
Ne        0.2586136      0.3288422      0.6082916
Ne        0.2357407      0.3543015      0.6188736
Ne        0.2476959      0.6372833      0.3020248
Ne        0.2578888      0.6603012      0.2766800
Ne        0.2345963      0.6705093      0.3021164
Ne        0.2479782      0.6712723      0.4014587
Ne        0.2586136      0.6484222      0.4269257
Ne        0.2356949      0.6376038      0.4017487
Ne        0.2476959      0.7040939      0.3681412
Ne        0.2578506      0.7295303      0.3448410
Ne        0.2346344      0.7037964      0.3348770
Ne        0.2480927      0.6044464      0.3352814
Ne        0.2586136      0.5788574      0.3582764
Ne        0.2357330      0.6043243      0.3688660
Ne        0.2476959      0.3872757      0.3020248
Ne        0.2578888      0.4103012      0.2766800
Ne        0.2345963      0.4204941      0.3021164
Ne        0.2479782      0.4212570      0.4014587
Ne        0.2586136      0.3984222      0.4269257
Ne        0.2476959      0.4540863      0.3681412
Ne        0.2578430      0.4795227      0.3448410
Ne        0.2346344      0.4537888      0.3348694
Ne        0.2480927      0.3544159      0.3352890
Ne        0.2586136      0.3288422      0.3582764
Ne        0.3836288      0.7734375      0.3019104
Ne        0.3607483      0.7626190      0.2767410
Ne        0.3499908      0.7857285      0.3020172
Ne        0.6336288      0.7734375      0.3019104
Ne        0.6107483      0.7626190      0.2767410
Ne        0.5999985      0.7857285      0.3020172
Ne        0.4161453      0.3872757      0.7199326
Ne        0.4417725      0.4103546      0.7098999
Ne        0.4164505      0.4205399      0.7329636
Ne        0.4418793      0.3972473      0.7431107
Ne        0.3828659      0.3544998      0.7198715
Ne        0.3596420      0.3287735      0.7099075
Ne        0.3496475      0.3543777      0.7329254
Ne        0.3726807      0.3290710      0.7431564
Ne        0.3166809      0.4212646      0.7210388
Ne        0.2914658      0.3983841      0.7102127
Ne        0.3167572      0.3876343      0.7333145
Ne        0.2911606      0.4106293      0.7438889
Ne        0.3499603      0.4541168      0.7210083
Ne        0.3731079      0.4794312      0.7102966
Ne        0.3836212      0.4538193      0.7332916
Ne        0.3607407      0.4793167      0.7438889
Ne        0.6661682      0.6372833      0.7199326
Ne        0.6917877      0.6603546      0.7098999
Ne        0.6664658      0.6705551      0.7329636
Ne        0.6918945      0.6472549      0.7431107
Ne        0.6328735      0.6045074      0.7198715
Ne        0.6096497      0.5787888      0.7099075
Ne        0.5996628      0.6043930      0.7329254
Ne        0.6226807      0.5790863      0.7431564
Ne        0.5666809      0.6712646      0.7210388
Ne        0.5414886      0.6483841      0.7102127
Ne        0.5667572      0.6376495      0.7333145
Ne        0.5411758      0.6606293      0.7438889
Ne        0.5999603      0.7041321      0.7210083
Ne        0.6231079      0.7294464      0.7103043
Ne        0.6336365      0.7038193      0.7332916
Ne        0.6107559      0.7293320      0.7438889
Ne        0.4161453      0.6372833      0.7199326
Ne        0.4417725      0.6603546      0.7098999
Ne        0.4164429      0.6705551      0.7329636
Ne        0.4418793      0.6472549      0.7431107
Ne        0.3828659      0.6045074      0.7198715
Ne        0.3596420      0.5787888      0.7099075
Ne        0.3496475      0.6043930      0.7329254
Ne        0.3726807      0.5790863      0.7431564
Ne        0.3166809      0.6712646      0.7210388
Ne        0.2914658      0.6483841      0.7102127
Ne        0.3167572      0.6376419      0.7333145
Ne        0.3499603      0.7041321      0.7210083
Ne        0.3731079      0.7294464      0.7102966
Ne        0.3836212      0.7038193      0.7332916
Ne        0.3607407      0.7293320      0.7438889
Ne        0.6661682      0.3872757      0.7199326
Ne        0.6917877      0.4103546      0.7098999
Ne        0.6664734      0.4205399      0.7329636
Ne        0.6918945      0.3972473      0.7431107
Ne        0.6328735      0.3544998      0.7198715
Ne        0.6096497      0.3287735      0.7099075
Ne        0.5996628      0.3543777      0.7329254
Ne        0.6226807      0.3290710      0.7431564
Ne        0.5666809      0.4212646      0.7210388
Ne        0.5414886      0.3983841      0.7102127
Ne        0.5667572      0.3876343      0.7333145
Ne        0.5411758      0.4106293      0.7438889
Ne        0.5999603      0.4541168      0.7210083
Ne        0.6231079      0.4794312      0.7103043
Ne        0.6336365      0.4538193      0.7332916
Ne        0.6107559      0.4793167      0.7438889
Ne        0.7247391      0.2295303      0.6078415
Ne        0.5077820      0.2296753      0.5949478
Ne        0.6108093      0.2294998      0.4937515
Ne        0.6230087      0.2296295      0.7104187
Ne        0.4747238      0.2295380      0.6078415
Ne        0.2577515      0.2296753      0.5949478
Ne        0.3607941      0.2294998      0.4937515
Ne        0.3730164      0.2296295      0.7104187
Ne        0.7247391      0.2295303      0.3578262
Ne        0.5077820      0.2296753      0.3449326
Ne        0.6230164      0.2296371      0.4604034
Ne        0.4747238      0.2295380      0.3578339
Ne        0.2577515      0.2296753      0.3449326
Ne        0.3607941      0.2294998      0.2437363
Ne        0.3730240      0.2296371      0.4604111
Ne        0.7910004      0.2623367      0.5949554
Ne        0.7577820      0.2296753      0.5949478
Ne        0.7910004      0.2623367      0.3449402
Ne        0.7577820      0.2296753      0.3449326
Ne        0.7910004      0.5123367      0.3449402
Ne        0.7911835      0.2954025      0.3578491
Ne        0.7910156      0.4105301      0.2437744
Ne        0.7910004      0.7623672      0.5949554
Ne        0.7911911      0.5454330      0.6078720
Ne        0.7912140      0.6485367      0.7103653
Ne        0.7910156      0.6605225      0.4937897
Ne        0.7910004      0.5123367      0.5949554
Ne        0.7911911      0.2954025      0.6078720
Ne        0.7912064      0.3985443      0.7103577
Ne        0.7910156      0.4105301      0.4937820
Ne        0.7910004      0.7623672      0.3449402
Ne        0.7911911      0.5454330      0.3578491
Ne        0.7912140      0.6485443      0.4603348
Ne        0.7910156      0.6605225      0.2437744
Ne        0.6108780      0.2627106      0.7765579
Ne        0.6108093      0.2294998      0.7437668
Ne        0.3608856      0.2627106      0.7765579
Ne        0.3607941      0.2294998      0.7437668
Ne        0.4746933      0.3973236      0.7763138
Ne        0.2577744      0.4102020      0.7764969
Ne        0.3729172      0.2961655      0.7763138
Ne        0.3608856      0.5127258      0.7765579
Ne        0.7247238      0.6473389      0.7763138
Ne        0.5077896      0.6601944      0.7764969
Ne        0.6229095      0.5461807      0.7763062
Ne        0.6108780      0.7627411      0.7765579
Ne        0.4746933      0.6473389      0.7763138
Ne        0.3729172      0.5461807      0.7763138
Ne        0.3608856      0.7627411      0.7765579
Ne        0.7247238      0.3973236      0.7763138
Ne        0.5077896      0.4102020      0.7764969
Ne        0.6229095      0.2961655      0.7763138
Ne        0.6108780      0.5127258      0.7765579
Ne        0.7578049      0.4102020      0.7764969
Ne        0.7910156      0.4105301      0.7438049
Ne        0.7578049      0.6601944      0.7764969
Ne        0.7910156      0.6605225      0.7438049
Xe        0.7176437      0.2868042      0.7140198
Xe        0.6674347      0.6474228      0.5616226
Xe        0.6343307      0.6540756      0.3243103
Xe        0.2936554      0.3368454      0.7229843
Xe        0.2983704      0.5739670      0.2732925
Xe        0.6070786      0.4627151      0.6194229
Xe        0.5498199      0.3242035      0.2682037
Xe        0.6585922      0.3502960      0.5463181
Xe        0.5478821      0.4002075      0.6432724
Xe        0.2522659      0.4598999      0.4948654
Xe        0.2650528      0.2845535      0.4083099
Xe        0.3742676      0.6114197      0.4126129
Xe        0.7271957      0.3358459      0.6871262
Xe        0.4455719      0.4719543      0.6756744
Xe        0.4741745      0.5136566      0.6610184
Xe        0.3705673      0.4500580      0.4065628
Xe        0.4122696      0.4488068      0.5466766
Xe        0.7330933      0.4723663      0.7114792
Xe        0.5779266      0.6380692      0.4149094
Xe        0.6554718      0.4035645      0.6639328
Xe        0.2462006      0.5307541      0.4197006
Xe        0.2456589      0.3284454      0.5394669
Xe        0.3913803      0.4705124      0.5819778
Xe        0.3076096      0.6998215      0.3029404
Xe        0.3695297      0.3929062      0.4088593
Xe        0.5503235      0.4024582      0.3538132
Xe        0.7085953      0.5432129      0.4585648
Xe        0.4834137      0.5963211      0.7167740
Xe        0.3083115      0.6423645      0.3429108
Xe        0.3279724      0.5872116      0.5976715
Xe        0.6996460      0.4801025      0.4204559
Xe        0.6299744      0.6384201      0.6161270
Xe        0.4919357      0.5933609      0.4857559
Xe        0.5424347      0.5875244      0.4708633
Xe        0.2856064      0.5679245      0.4227600
Xe        0.6927872      0.7255325      0.4284592
Xe        0.6604919      0.3443909      0.3574142
Xe        0.5554276      0.6312256      0.3373184
Xe        0.2660522      0.7684784      0.2520447
Xe        0.6686401      0.6125183      0.5932159
Xe        0.7341995      0.5248566      0.2416534
Xe        0.2995148      0.6979675      0.3518066
Xe        0.2461624      0.4765625      0.4186172
Xe        0.5026321      0.4727020      0.7217331
Xe        0.7302399      0.7587814      0.4262085
Xe        0.5581818      0.4508057      0.6003265
Xe        0.2857590      0.5361557      0.6627884
Xe        0.6745453      0.5162125      0.4758072
Xe        0.7392883      0.5898209      0.4349060
Xe        0.6411285      0.6807251      0.6401291
Xe        0.4889755      0.3483505      0.2276917
Xe        0.6340790      0.6823730      0.5867157
Xe        0.6215897      0.7160263      0.3298111
Xe        0.3093109      0.2826920      0.2287979
Xe        0.6795883      0.5213623      0.6955261
Xe        0.4289169      0.3900528      0.6124649
Xe        0.2998505      0.2834015      0.6762772
Xe        0.3827667      0.4439087      0.3100967
Xe        0.5428314      0.5625687      0.5124664
Xe        0.2986145      0.5547638      0.5078125
Xe        0.6777344      0.5309601      0.5200729
Xe        0.3662720      0.7046661      0.3956146
Xe        0.5047226      0.5857697      0.6725311
Xe        0.4159622      0.3522034      0.5474701
Xe        0.4706726      0.3066101      0.2433014
Xe        0.4918365      0.3444977      0.5034714
Xe        0.3452759      0.3823547      0.5805206
Xe        0.5237808      0.7236328      0.4766006
Xe        0.4305191      0.7707291      0.2532501
Xe        0.6016312      0.4007034      0.2840042
Xe        0.4441757      0.7225266      0.4349060
Xe        0.2472076      0.7773819      0.2939987
Xe        0.5224838      0.4785614      0.5015717
Xe        0.3348770      0.4302063      0.6071243
Xe        0.6054306      0.6758270      0.3684082
Xe        0.6795502      0.3941574      0.4057541
Xe        0.6895981      0.7172165      0.4782104
Xe        0.5452347      0.3294449      0.6712799
Xe        0.6851349      0.5769119      0.6778870
Xe        0.4941254      0.5456161      0.4119034
Xe        0.6419830      0.6493683      0.3757095
Xe        0.5829773      0.5904236      0.6055145
Xe        0.5448380      0.2819443      0.5327225
Xe        0.5632858      0.4502640      0.3971634
Xe        0.7001877      0.3296967      0.2786942
Xe        0.2905121      0.5315018      0.2747040
Xe        0.3662186      0.4530640      0.6611710
Xe        0.5134354      0.2888031      0.2870941
Xe        0.4353714      0.5801620      0.4838562
Xe        0.6582413      0.3462067      0.5907135
Xe        0.2931595      0.7415848      0.2742462
Xe        0.6810303      0.4085083      0.3103027
Xe        0.3071060      0.4652557      0.6026154
Xe        0.3128128      0.3580017      0.3641129
Xe        0.6604919      0.7179642      0.6450729
Xe        0.3408203      0.4444656      0.2894974
Xe        0.6381836      0.3803101      0.3676605
Xe        0.4027252      0.3535004      0.4014130
Xe        0.4404221      0.4787674      0.4775620
Xe        0.2978058      0.3363419      0.2783585
Xe        0.4322662      0.6845169      0.3411560
Xe        0.5677719      0.4492035      0.6522675
Xe        0.3569183      0.6247635      0.2862549
Xe        0.6690369      0.6951141      0.5540771
Xe        0.3768692      0.6803741      0.6434631
Xe        0.3770752      0.5944672      0.5913773
Xe        0.6153793      0.6868134      0.2942047
Xe        0.5091782      0.7720261      0.4518127
Xe        0.4141693      0.4142151      0.6532211
Xe        0.2856064      0.5851212      0.7187347
Xe        0.3518677      0.7185287      0.3546677
Xe        0.4945831      0.7137146      0.5158157
Xe        0.6996460      0.7290726      0.6719818
Xe        0.4094162      0.4051666      0.2829437
Xe        0.3898773      0.3698959      0.5822220
Xe        0.4402161      0.3340073      0.7165222
Xe        0.4297256      0.4628143      0.2890549
Xe        0.5506744      0.4861069      0.6857300
Xe        0.6964798      0.7179260      0.2693481
Xe        0.6903915      0.4823608      0.5332260
Xe        0.5203323      0.5078125      0.2733994
Xe        0.4762650      0.7564316      0.2426453
Xe        0.4229660      0.6488266      0.3045502
Xe        0.7306976      0.5939255      0.2355042
Xe        0.4647141      0.5797272      0.2674484
Xe        0.5823898      0.6656265      0.5784149
Xe        0.5707321      0.6054153      0.2973938
Xe        0.7394943      0.5851212      0.5270767
Xe        0.4398727      0.5711136      0.5289154
Xe        0.2805023      0.4756012      0.4625626
Xe        0.4818115      0.5401535      0.2961426
Xe        0.3564148      0.4572525      0.5532227
Xe        0.6232376      0.4634628      0.5522232
Xe        0.6243210      0.5963669      0.5699234
Xe        0.3496170      0.7164688      0.5631256
Xe        0.2943039      0.3316956      0.4744568
Xe        0.6442795      0.4101562      0.2837524
Xe        0.5954819      0.6268234      0.5706711
Xe        0.5394821      0.3391571      0.4692612
Xe        0.6620331      0.4255142      0.6095657
Xe        0.5675812      0.5940247      0.5427170
Xe        0.4219284      0.4482651      0.3913651
Xe        0.4130249      0.6094742      0.3487625
Xe        0.6007385      0.4016647      0.6641846
Xe        0.6817398      0.6495132      0.4035187
Xe        0.5380402      0.4799118      0.4626541
Xe        0.7414398      0.4842529      0.5387115
Xe        0.6121826      0.3380508      0.6047211
Xe        0.2762680      0.5931702      0.4768524
Xe        0.6187744      0.6568146      0.6730881
Xe        0.4469681      0.5783234      0.6668320
Xe        0.3190689      0.6568680      0.6501160
Xe        0.2497025      0.3245010      0.2863007
Xe        0.4027634      0.3470993      0.3474579
Xe        0.3295746      0.4375687      0.3885651
Xe        0.6836395      0.5807648      0.2338028
Xe        0.3024139      0.7235260      0.5360641
Xe        0.3105621      0.6112747      0.6362686
Xe        0.3395233      0.6738205      0.3634644
Xe        0.3165131      0.7030716      0.4030151
Xe        0.6201324      0.3511047      0.2930984
Xe        0.3091049      0.4412155      0.5601273
Xe        0.2899094      0.5822678      0.6716309
Xe        0.5390244      0.3420563      0.7191696
Xe        0.6770859      0.7634811      0.7028809
Xe        0.4424667      0.7400208      0.2882462
Xe        0.2842560      0.2952042      0.4577560
Xe        0.2796631      0.4710541      0.7165833
Xe        0.7257919      0.2985001      0.2551041
Xe        0.6307831      0.6362305      0.4184113
Xe        0.4446716      0.4752655      0.5238266
Xe        0.4470139      0.3149948      0.6681290
Xe        0.5198822      0.5540771      0.4642563
Xe        0.3442764      0.6786652      0.5885696
Xe        0.4259262      0.6046219      0.6064758
Xe        0.4886246      0.5846252      0.5357742
Xe        0.3886719      0.6770172      0.5931702
Xe        0.3214722      0.4031601      0.6659393
Xe        0.3145065      0.3898621      0.3986588
Xe        0.4276657      0.6518707      0.6509705
Xe        0.2909088      0.6637726      0.6150208
Xe        0.6269836      0.4472656      0.6572266
Xe        0.4577255      0.7638779      0.4575043
Xe        0.2517090      0.4708099      0.2650986
Xe        0.5571365      0.4556656      0.3489075
Xe        0.4535751      0.3251495      0.5174637
Xe        0.4209213      0.3610916      0.3027496
Xe        0.6131287      0.3321533      0.3506622
Xe        0.4081192      0.6032639      0.6555176
Xe        0.5638733      0.3625107      0.6243668
Xe        0.5594788      0.3592987      0.2992020
Xe        0.5949860      0.4207611      0.6213226
Xe        0.2846527      0.7205887      0.4821625
Xe        0.2881546      0.7736740      0.5339203
Xe        0.5461731      0.5368576      0.4219513
Xe        0.6587372      0.7071228      0.3619614
Xe        0.6052856      0.5936737      0.3940125
Xe        0.4112244      0.7084198      0.5562210
Xe        0.5542221      0.4885635      0.2362595
Xe        0.3063583      0.3638000      0.6114197
Xe        0.6634903      0.4475555      0.4146118
Xe        0.2996597      0.4669037      0.4169693
Xe        0.3589172      0.3403015      0.6092682
Xe        0.6383743      0.4164047      0.3344650
Xe        0.6669922      0.7089767      0.5983658
Xe        0.5405807      0.7795334      0.6705246
Xe        0.4765167      0.7522354      0.4149628
Xe        0.4953766      0.3364487      0.6771317
Xe        0.2445526      0.7255707      0.2892456
Xe        0.6634369      0.7057648      0.3093033
Xe        0.3119659      0.5419693      0.7129364
Xe        0.5559769      0.7105637      0.6546631
Xe        0.6947479      0.3286057      0.5306625
Xe        0.6742935      0.6609802      0.2981033
Xe        0.6744843      0.4530182      0.2961044
Xe        0.4709702      0.3091507      0.4600677
Xe        0.6039734      0.6276627      0.3637161
Xe        0.6111221      0.7225876      0.6037674
Xe        0.7093430      0.4938049      0.2729568
Xe        0.4546204      0.4683609      0.2371521
Xe        0.7218933      0.7601852      0.4971161
Xe        0.6134338      0.5969696      0.3053970
Xe        0.5901871      0.4351501      0.3292084
Xe        0.4241791      0.2831497      0.4829636
Xe        0.4727631      0.7702332      0.5049133
Xe        0.3574142      0.4556046      0.3493118
Xe        0.2992020      0.7553864      0.4392166
Xe        0.3037109      0.7288818      0.7242813
Xe        0.5218811      0.7102737      0.2360077
Xe        0.5965881      0.4193649      0.3714523
Xe        0.3852692      0.6796646      0.3310623
Xe        0.4164658      0.3465576      0.6130219
Xe        0.5274277      0.7363739      0.2792511
Xe        0.4184189      0.6042252      0.5483246
Xe        0.4638138      0.5256653      0.5400238
Xe        0.3574753      0.5985718      0.6485138
Xe        0.5770340      0.6966782      0.5408173
Xe        0.4156723      0.4630661      0.3412170
Xe        0.4333115      0.5414658      0.2648010
Xe        0.5515289      0.3589020      0.3991165
Xe        0.3029099      0.4088135      0.3476639
Xe        0.7241440      0.2854004      0.5456161
Xe        0.2574158      0.4880676      0.6648331
Xe        0.7117844      0.5368195      0.2915955
Xe        0.3765182      0.6779099      0.5376282
Xe        0.2980576      0.4687195      0.2850952
Xe        0.5521774      0.7718353      0.2555466
Xe        0.4723663      0.5526657      0.5022202
Xe        0.5556335      0.6223221      0.5878754
Xe        0.5601273      0.6434631      0.5424194
Xe        0.2870636      0.5390091      0.4562531
Xe        0.2704544      0.5304184      0.5398788
Xe        0.6686859      0.4383621      0.5481720
Xe        0.4056625      0.6543274      0.4173660
Xe        0.4853134      0.5076065      0.4987640
Xe        0.4718628      0.5365677      0.4572525
Xe        0.5162277      0.3028564      0.2276077
Xe        0.4907761      0.4741592      0.2715530
Xe        0.4993210      0.2894974      0.6520157
Xe        0.2533569      0.2948914      0.5050735
Xe        0.5396881      0.5832291      0.4227066
Xe        0.4618759      0.7599335      0.6680222
Xe        0.3122559      0.7128754      0.6065216
Xe        0.4120636      0.7129669      0.3915558
Xe        0.6830902      0.7742767      0.5200729
Xe        0.3588715      0.4013062      0.2850494
Xe        0.7392426      0.7095184      0.4626541
Xe        0.6407318      0.3770447      0.6157150
Xe        0.7008362      0.3335495      0.4265137
Xe        0.3752670      0.3885651      0.5403748
Xe        0.6815338      0.4776077      0.2335968
Xe        0.4108734      0.5995712      0.2992020
Xe        0.3265762      0.3522491      0.3158035
Xe        0.2940140      0.5916748      0.5372696
Xe        0.4331665      0.5763245      0.4291077
Xe        0.5932770      0.3783569      0.3198929
Xe        0.3465118      0.6065216      0.5495148
Xe        0.3696136      0.3775482      0.3608170
Xe        0.2523117      0.7286758      0.5286179
Xe        0.6246338      0.3514557      0.6521225
Xe        0.4556198      0.5026016      0.2882462
Xe        0.5423813      0.5578690      0.6835785
Xe        0.2559586      0.7494278      0.7090759
Xe        0.3493652      0.6273727      0.3796616
Xe        0.6250305      0.3860626      0.5374603
Xe        0.6695404      0.5905228      0.5456772
Xe        0.5553284      0.5154037      0.5181732
Xe        0.6061783      0.7095184      0.6588745
Xe        0.6068878      0.6731720      0.4190140
Xe        0.4326248      0.3779984      0.3648605
Xe        0.6115799      0.7202301      0.3774109
Xe        0.6986465      0.7276764      0.5326233
Xe        0.3720703      0.3842545      0.6267624
Xe        0.5563278      0.5998230      0.6531219
Xe        0.5669327      0.4528122      0.2949524
Xe        0.5069733      0.7362823      0.6644363
Xe        0.6674347      0.3628006      0.3153458
Xe        0.6849442      0.3168030      0.6898346
Xe        0.4658737      0.5153656      0.2448502
Xe        0.2624054      0.7188797      0.2451477
Xe        0.3123169      0.6232224      0.5810776
Xe        0.4473648      0.7269897      0.5193176
Xe        0.5050354      0.7239838      0.4305649
Xe        0.3496780      0.3480453      0.4026031
Xe        0.5757370      0.6639633      0.3150558
Xe        0.5598297      0.3484955      0.3439102
Xe        0.4342728      0.3357544      0.4771652
Xe        0.5076828      0.5601654      0.2472458
Xe        0.6340332      0.5875244      0.6193237
Xe        0.6580353      0.5979233      0.4051666
Xe        0.5379333      0.7736740      0.4153595
Xe        0.5022812      0.5271606      0.7119751
Xe        0.5412292      0.5872726      0.7158737
Xe        0.3602676      0.7074127      0.3056946
Xe        0.2442627      0.5940704      0.6895218
Xe        0.5602264      0.2958527      0.4633179
Xe        0.5158768      0.7629776      0.7158356
Xe        0.6187286      0.6044159      0.6626816
Xe        0.5100327      0.5400543      0.5336227
Xe        0.5722809      0.7064133      0.3999557
Xe        0.7210846      0.5345078      0.5465698
Xe        0.4280777      0.4387589      0.5951767
Xe        0.6810913      0.5254135      0.4221191
Xe        0.6368713      0.4329147      0.3792648
Xe        0.3322678      0.7013245      0.6465683
Xe        0.5401840      0.7307205      0.5316620
Xe        0.4759674      0.7086258      0.4663010
Xe        0.5250320      0.5236206      0.6635818
Xe        0.5561371      0.4682159      0.5447769
Xe        0.6979370      0.5722656      0.4248123
Xe        0.6270294      0.4610672      0.3050461
Xe        0.2933044      0.3229980      0.5207748
Xe        0.2926559      0.4196167      0.6220703
Xe        0.7128906      0.5156097      0.6657333
Xe        0.4441757      0.3330917      0.4220581
Xe        0.6719818      0.6138763      0.3041916
Xe        0.3577728      0.3350067      0.3472061
Xe        0.6119766      0.4739075      0.3535614
Xe        0.6550293      0.6975098      0.4049606
Xe        0.6949387      0.4714127      0.4808578
Xe        0.6713333      0.3489532      0.6485748
Xe        0.2602081      0.2994537      0.6632843
Xe        0.2943649      0.7298889      0.6671295
Xe        0.2500610      0.3379898      0.2374496
Xe        0.3339157      0.4062119      0.5415268
Xe        0.3143616      0.3566971      0.5512619
Xe        0.6657410      0.3913651      0.5667725
Xe        0.3098602      0.6523285      0.3942184
Xe        0.4229279      0.5016022      0.7141876
Xe        0.5591202      0.6632690      0.3715591
Xe        0.4822693      0.7212296      0.7083282
Xe        0.3708649      0.7186737      0.6050797
Xe        0.4355621      0.7754288      0.4267044
Xe        0.4696732      0.5510178      0.6922302
Xe        0.5890198      0.6809158      0.6239700
Xe        0.4966278      0.3107529      0.5336227
Xe        0.4859772      0.3078003      0.4159622
Xe        0.3027039      0.6618195      0.5661240
Xe        0.5438309      0.3362579      0.5276642
Xe        0.5638733      0.2909470      0.7118759
Xe        0.4062653      0.4644089      0.6449661
Xe        0.4344177      0.7330780      0.4783554
Xe        0.3218689      0.3437500      0.6551208
Xe        0.3679199      0.5919647      0.3655090
Xe        0.3184662      0.6038666      0.4114609
Xe        0.6660385      0.6143799      0.6404190
Xe        0.5751343      0.4039612      0.4124603
Xe        0.4321213      0.5675278      0.7188339
Xe        0.3961716      0.3971176      0.3270187
Xe        0.3544769      0.6616211      0.4138641
Xe        0.5638733      0.6603165      0.6619644
Xe        0.4830170      0.4877548      0.4121094
Xe        0.4293289      0.5306091      0.4686584
Xe        0.7355347      0.5044174      0.4542084
Xe        0.4304123      0.5258102      0.6716766
Xe        0.5700302      0.3916550      0.5420685
Xe        0.3994293      0.7235260      0.3449554
Xe        0.5532837      0.7339783      0.4363632
Xe        0.4915237      0.3379898      0.2786026
Xe        0.3568726      0.4704056      0.6135635
Xe        0.2524567      0.5116577      0.2920532
Xe        0.7150421      0.7533264      0.2516479
Xe        0.3493195      0.6292267      0.6083755
Xe        0.6552811      0.3534470      0.4032059
Xe        0.3125076      0.4492645      0.6493683
Xe        0.4313278      0.4227600      0.3367157
Xe        0.2983704      0.3991165      0.5738220
Xe        0.6779404      0.6117096      0.3562546
Xe        0.7136383      0.5560760      0.7133789
Xe        0.7262344      0.2987061      0.4590607
Xe        0.6064301      0.3484955      0.5557251
Xe        0.3009567      0.3385544      0.4164658
Xe        0.3676758      0.3384933      0.5508270
Xe        0.6886826      0.4734116      0.6900787
Xe        0.4299164      0.7775345      0.7082291
Xe        0.4869766      0.4651566      0.4622574
Xe        0.4103775      0.7069778      0.2963104
Xe        0.5614319      0.3526917      0.5701141
Xe        0.6822433      0.7654343      0.4675140
Xe        0.3675232      0.5920258      0.3183899
Xe        0.6640930      0.4648056      0.6430283
Xe        0.5423355      0.4820023      0.4197617
Xe        0.6077805      0.6349792      0.2807999
Xe        0.6839905      0.2816544      0.4218063
Xe        0.4371719      0.6477203      0.3756638
Xe        0.5055313      0.5102539      0.4449081
Xe        0.2595673      0.7604752      0.4685516
Xe        0.3725739      0.3522949      0.2956009
Xe        0.4855652      0.5855179      0.4378586
Xe        0.5616226      0.4087143      0.3053589
Xe        0.3707199      0.3512497      0.6596680
Xe        0.4347687      0.7224274      0.6783829
Xe        0.6012344      0.3580933      0.4052124
Xe        0.5660248      0.7061691      0.2918015
Xe        0.2884674      0.5183640      0.4128189
Xe        0.4402771      0.4716187      0.4321671
Xe        0.2779160      0.3340073      0.6837234
Xe        0.5481339      0.4007645      0.5897141
Xe        0.6731873      0.5705719      0.4746628
Xe        0.3042068      0.5101547      0.4869614
Xe        0.5145264      0.2992935      0.4957733
Xe        0.7199402      0.5036087      0.4965134
Xe        0.3753204      0.6400681      0.6676254
Xe        0.2465134      0.5758209      0.2919922
Xe        0.4285736      0.7034760      0.6402130
Xe        0.3918152      0.6307678      0.6173172
Xe        0.3748703      0.6345673      0.3341675
Xe        0.6875992      0.5793228      0.2826920
Xe        0.6918335      0.7772369      0.2901535
Xe        0.3068161      0.7680283      0.4929199
Xe        0.6008835      0.3864059      0.5872116
Xe        0.7024841      0.3374481      0.2265472
Xe        0.6750870      0.6525726      0.6589203
Xe        0.5701294      0.7094727      0.3409653
Xe        0.4862289      0.7492828      0.5411301
Xe        0.3110046      0.6424255      0.2916565
Xe        0.4260178      0.7052231      0.5977173
Xe        0.5555344      0.7595825      0.4878159
Xe        0.4186172      0.4081650      0.5580673
Xe        0.6813431      0.6610184      0.6127167
Xe        0.5862885      0.6276169      0.6328125
Xe        0.6278229      0.4270630      0.5746155
Xe        0.4375229      0.5150070      0.4219513
Xe        0.5540314      0.5373154      0.2263947
Xe        0.7289886      0.3425980      0.4847565
Xe        0.5035324      0.4895554      0.5394669
Xe        0.4957352      0.3405533      0.4468689
Xe        0.3064117      0.3983078      0.3035431
Xe        0.6823883      0.3899612      0.3582535
Xe        0.5457306      0.3216019      0.4208679
Xe        0.4239273      0.4013062      0.3997040
Xe        0.2921143      0.4775620      0.5294724
Xe        0.4189224      0.3655548      0.6537704
Xe        0.3439636      0.6635208      0.3119507
Xe        0.6114349      0.4607544      0.4084167
Xe        0.6139374      0.6603775      0.5431137
Xe        0.6834869      0.3874664      0.6172180
Xe        0.6813889      0.5271606      0.2492905
Xe        0.4236755      0.6629639      0.5469284
Xe        0.5547256      0.5267639      0.4697647
Xe        0.7136383      0.7185287      0.7206268
Xe        0.5332260      0.5930710      0.2670517
Xe        0.5593719      0.6097260      0.3844604
Xe        0.6839905      0.6596222      0.3497620
Xe        0.3099060      0.6004715      0.3066940
Xe        0.2618637      0.5549164      0.2424927
Xe        0.4633179      0.2824020      0.2832565
Xe        0.2541046      0.3354034      0.4468689
Xe        0.5534897      0.5445557      0.2669983
Xe        0.6468811      0.4718094      0.5956726
Xe        0.4395218      0.3222504      0.2733536
Xe        0.3866272      0.4321671      0.6209259
Xe        0.4380646      0.7267380      0.2316513
Xe        0.5058823      0.4769592      0.6732788
Xe        0.3471756      0.4105682      0.3294144
Xe        0.3076630      0.4604645      0.3516617
Xe        0.3845673      0.6609192      0.3786087
Xe        0.6282349      0.5923615      0.3553543
Xe        0.2511063      0.5399628      0.4953613
Xe        0.5626221      0.7114182      0.5918198
Xe        0.2961578      0.2879028      0.2804413
Xe        0.4246140      0.6046219      0.3978043
Xe        0.4343109      0.6550140      0.6025162
Xe        0.3918152      0.4299622      0.3639069
Xe        0.4757614      0.2906570      0.6994858
Xe        0.4788284      0.7196274      0.2693939
Xe        0.2663040      0.5181580      0.7058258
Xe        0.3399658      0.6467209      0.5422745
Xe        0.6795883      0.3123016      0.4703674
Xe        0.5828857      0.4297104      0.5610657
Xe        0.4382706      0.2877426      0.5384674
Xe        0.7120361      0.2853012      0.6663742
Xe        0.6286316      0.4041061      0.4202652
Xe        0.3054123      0.4910507      0.6764297
Xe        0.3863754      0.6683655      0.2791061
Xe        0.3710709      0.4244080      0.5789108
Xe        0.6247787      0.7149658      0.5440292
Xe        0.3844757      0.6344147      0.5627136
Xe        0.2710114      0.7259293      0.4264145
Xe        0.3186722      0.5998230      0.3553085
Xe        0.7123871      0.5545731      0.5068130
Xe        0.5492783      0.6631699      0.6123734
Xe        0.5483398      0.7372284      0.7024307
Xe        0.6781311      0.4391556      0.3547058
Xe        0.2620087      0.2965012      0.7149353
Xe        0.7212906      0.5927200      0.4822540
Xe        0.3658218      0.4045639      0.6680832
Xe        0.6721878      0.2938919      0.2426453
Xe        0.4259262      0.5227661      0.5152130
Xe        0.2444687      0.7456284      0.6633301
Xe        0.7401428      0.5551682      0.6709213
Xe        0.5899353      0.3708496      0.3679047
Xe        0.2963638      0.5093155      0.2428894
Xe        0.5784302      0.5905228      0.3400497
Xe        0.3037109      0.2288589      0.2242508
Xe        0.2559586      0.2493973      0.2090530
Xe        0.5158768      0.2629471      0.2158051
Xe        0.4299164      0.2775040      0.2081985
Xe        0.7559891      0.2493973      0.2090530
Xe        0.2330627      0.4723663      0.2114487
Xe        0.2136078      0.5560760      0.2133484
Xe        0.7176437      0.2868042      0.2139969
Xe        0.2936554      0.3368454      0.2229538
Xe        0.7330933      0.4723663      0.2114487
Xe        0.4834137      0.5963211      0.2167435
Xe        0.5026321      0.4727020      0.2217026
Xe        0.2856064      0.5851212      0.2187042
Xe        0.4402161      0.3340073      0.2164917
Xe        0.5390244      0.3420563      0.2191467
Xe        0.2796631      0.4710541      0.2165527
Xe        0.3119659      0.5419693      0.2129059
Xe        0.3037109      0.7288818      0.2242508
Xe        0.2559586      0.7494278      0.2090530
Xe        0.5022812      0.5271606      0.2119446
Xe        0.5412292      0.5872726      0.2158508
Xe        0.5158768      0.7629776      0.2158051
Xe        0.4229279      0.5016022      0.2141571
Xe        0.4822693      0.7212296      0.2082977
Xe        0.5638733      0.2909470      0.2118454
Xe        0.4321213      0.5675278      0.2188034
Xe        0.7136383      0.5560760      0.2133484
Xe        0.4299164      0.7775345      0.2081985
Xe        0.7136383      0.7185287      0.2206039
Xe        0.4757614      0.2906570      0.1994553
Xe        0.2663040      0.5181580      0.2057953
Xe        0.2620087      0.2965012      0.2149048
Xe        0.7936859      0.3368454      0.2229538
Xe        0.7796936      0.4710541      0.2165527
Xe        0.7559891      0.7494278      0.2090530
Xe        0.7663345      0.5181580      0.2057953
Xe        0.7620392      0.2965012      0.2149048
Xe        0.7176437      0.7868271      0.2139969
Xe        0.5638733      0.7909775      0.2118454
Xe        0.4757614      0.7906876      0.1994553
Xe        0.2620087      0.7965240      0.2149048
Xe        0.7620392      0.7965240      0.2149048
Xe        0.2302094      0.2587585      0.4262085
Xe        0.2218628      0.2601547      0.4971161
Xe        0.2150116      0.2532959      0.2516479
Xe        0.6927872      0.2255020      0.4284592
Xe        0.2660522      0.2684555      0.2520447
Xe        0.7302399      0.2587585      0.4262085
Xe        0.4305191      0.2707062      0.2532501
Xe        0.2472076      0.2773514      0.2939987
Xe        0.2931595      0.2415543      0.2742462
Xe        0.5091782      0.2719955      0.4518127
Xe        0.6996460      0.2290497      0.6719818
Xe        0.4762650      0.2564011      0.2426453
Xe        0.6770859      0.2634506      0.7028809
Xe        0.4424667      0.2399979      0.2882462
Xe        0.4577255      0.2638474      0.4575043
Xe        0.2881546      0.2736435      0.5339203
Xe        0.5405807      0.2795029      0.6705246
Xe        0.4765167      0.2522049      0.4149628
Xe        0.7218933      0.2601547      0.4971161
Xe        0.4727631      0.2702026      0.5049133
Xe        0.2992020      0.2553558      0.4392166
Xe        0.3037109      0.2288589      0.7242813
Xe        0.5274277      0.2363434      0.2792511
Xe        0.5521774      0.2718048      0.2555466
Xe        0.4618759      0.2599030      0.6680222
Xe        0.6830902      0.2742462      0.5200729
Xe        0.2523117      0.2286530      0.5286179
Xe        0.2559586      0.2493973      0.7090759
Xe        0.5069733      0.2362595      0.6644363
Xe        0.4473648      0.2269592      0.5193176
Xe        0.5379333      0.2736435      0.4153595
Xe        0.5158768      0.2629471      0.7158356
Xe        0.5401840      0.2306976      0.5316620
Xe        0.2943649      0.2298584      0.6671295
Xe        0.4355621      0.2753983      0.4267044
Xe        0.5532837      0.2339478      0.4363632
Xe        0.7150421      0.2532959      0.2516479
Xe        0.4299164      0.2775040      0.7082291
Xe        0.6822433      0.2654037      0.4675140
Xe        0.2595673      0.2604446      0.4685516
Xe        0.6918335      0.2772064      0.2901535
Xe        0.3068161      0.2679977      0.4929199
Xe        0.4862289      0.2492523      0.5411301
Xe        0.5555344      0.2595520      0.4878159
Xe        0.4380646      0.2267075      0.2316513
Xe        0.5483398      0.2371979      0.7024307
Xe        0.2444687      0.2455978      0.6633301
Xe        0.7660828      0.2684555      0.2520447
Xe        0.7472305      0.2773514      0.2939987
Xe        0.7931900      0.2415543      0.2742462
Xe        0.7523422      0.2286530      0.5286179
Xe        0.7559891      0.2493973      0.7090759
Xe        0.7595901      0.2604446      0.4685516
Xe        0.7444992      0.2455978      0.6633301
Xe        0.2271652      0.3358459      0.6871262
Xe        0.2330627      0.4723663      0.7114792
Xe        0.2341690      0.5248566      0.2416534
Xe        0.2302094      0.7587814      0.4262085
Xe        0.2392578      0.5898209      0.4349060
Xe        0.2306671      0.5939255      0.2355042
Xe        0.2394638      0.5851212      0.5270767
Xe        0.2414093      0.4842529      0.5387115
Xe        0.2257614      0.2985001      0.2551041
Xe        0.2218628      0.7601852      0.4971161
Xe        0.2241135      0.2854004      0.5456161
Xe        0.2392120      0.7095184      0.4626541
Xe        0.2210541      0.5345078      0.5465698
Xe        0.2128601      0.5156097      0.6657333
Xe        0.2355042      0.5044174      0.4542084
Xe        0.2150116      0.7533264      0.2516479
Xe        0.2136078      0.5560760      0.7133789
Xe        0.2262039      0.2987061      0.4590607
Xe        0.2289581      0.3425980      0.4847565
Xe        0.2212601      0.5927200      0.4822540
Xe        0.2401123      0.5551682      0.6709213
Xe        0.7936859      0.3368454      0.7229843
Xe        0.7522964      0.4598999      0.4948654
Xe        0.7650986      0.2845535      0.4083099
Xe        0.7462311      0.5307541      0.4197006
Xe        0.7456894      0.3284454      0.5394669
Xe        0.7856369      0.5679245      0.4227600
Xe        0.7660828      0.7684784      0.2520447
Xe        0.7461853      0.4765625      0.4186172
Xe        0.7857895      0.5361557      0.6627884
Xe        0.7472305      0.7773819      0.2939987
Xe        0.7931900      0.7415848      0.2742462
Xe        0.7805328      0.4756012      0.4625626
Xe        0.7762985      0.5931702      0.4768524
Xe        0.7497330      0.3245010      0.2863007
Xe        0.7899323      0.5822678      0.6716309
Xe        0.7842865      0.2952042      0.4577560
Xe        0.7796936      0.4710541      0.7165833
Xe        0.7517395      0.4708099      0.2650986
Xe        0.7846985      0.7205887      0.4821625
Xe        0.7445831      0.7255707      0.2892456
Xe        0.7574463      0.4880676      0.6648331
Xe        0.7870941      0.5390091      0.4562531
Xe        0.7705002      0.5304184      0.5398788
Xe        0.7533875      0.2948914      0.5050735
Xe        0.7523422      0.7286758      0.5286179
Xe        0.7559891      0.7494278      0.7090759
Xe        0.7624359      0.7188797      0.2451477
Xe        0.7442932      0.5940704      0.6895218
Xe        0.7933350      0.3229980      0.5207748
Xe        0.7602386      0.2994537      0.6632843
Xe        0.7500916      0.3379898      0.2374496
Xe        0.7524872      0.5116577      0.2920532
Xe        0.7595901      0.7604752      0.4685516
Xe        0.7884903      0.5183640      0.4128189
Xe        0.7779465      0.3340073      0.6837234
Xe        0.7465439      0.5758209      0.2919922
Xe        0.7921448      0.4775620      0.5294724
Xe        0.7618866      0.5549164      0.2424927
Xe        0.7541351      0.3354034      0.4468689
Xe        0.7511368      0.5399628      0.4953613
Xe        0.7663345      0.5181580      0.7058258
Xe        0.7710419      0.7259293      0.4264145
Xe        0.7620392      0.2965012      0.7149353
Xe        0.7444992      0.7456284      0.6633301
Xe        0.2257614      0.7985306      0.2551041
Xe        0.2241135      0.7854309      0.5456161
Xe        0.2262039      0.7987366      0.4590607
Xe        0.7176437      0.7868271      0.7140198
Xe        0.2650528      0.7845764      0.4083099
Xe        0.3093109      0.7827225      0.2287979
Xe        0.2998505      0.7834320      0.6762772
Xe        0.4706726      0.8066330      0.2433014
Xe        0.5448380      0.7819748      0.5327225
Xe        0.5134354      0.7888336      0.2870941
Xe        0.2842560      0.7952347      0.4577560
Xe        0.7257919      0.7985306      0.2551041
Xe        0.4241791      0.7831802      0.4829636
Xe        0.7241440      0.7854309      0.5456161
Xe        0.4993210      0.7895203      0.6520157
Xe        0.2533569      0.7949219      0.5050735
Xe        0.5602264      0.7958832      0.4633179
Xe        0.2602081      0.7994843      0.6632843
Xe        0.5638733      0.7909775      0.7118759
Xe        0.7262344      0.7987366      0.4590607
Xe        0.6839905      0.7816772      0.4218063
Xe        0.5145264      0.7993240      0.4957733
Xe        0.4633179      0.7824326      0.2832565
Xe        0.2961578      0.7879333      0.2804413
Xe        0.4757614      0.7906876      0.6994858
Xe        0.4382706      0.7877884      0.5384674
Xe        0.7120361      0.7853317      0.6663742
Xe        0.2620087      0.7965240      0.7149353
Xe        0.6721878      0.7939224      0.2426453
Xe        0.7650986      0.7845764      0.4083099
Xe        0.7842865      0.7952347      0.4577560
Xe        0.7533875      0.7949219      0.5050735
Xe        0.7602386      0.7994843      0.6632843
Xe        0.7620392      0.7965240      0.7149353
Xe        0.2150116      0.2532959      0.7516785
Xe        0.2660522      0.2684555      0.7520752
Xe        0.4305191      0.2707062      0.7532806
Xe        0.2931595      0.2415543      0.7742767
Xe        0.4762650      0.2564011      0.7426834
Xe        0.5521774      0.2718048      0.7555771
Xe        0.7150421      0.2532959      0.7516785
Xe        0.4380646      0.2267075      0.7316818
Xe        0.7660828      0.2684555      0.7520752
Xe        0.7931900      0.2415543      0.7742767
Xe        0.2341690      0.5248566      0.7416840
Xe        0.2306671      0.5939255      0.7355347
Xe        0.2257614      0.2985001      0.7551346
Xe        0.2150116      0.7533264      0.7516785
Xe        0.2983704      0.5739670      0.7733383
Xe        0.5498199      0.3242035      0.7682343
Xe        0.2660522      0.7684784      0.7520752
Xe        0.7341995      0.5248566      0.7416840
Xe        0.4889755      0.3483505      0.7277374
Xe        0.3093109      0.2826920      0.7288284
Xe        0.4706726      0.3066101      0.7433319
Xe        0.4305191      0.7707291      0.7532806
Xe        0.7001877      0.3296967      0.7787247
Xe        0.2931595      0.7415848      0.7742767
Xe        0.2978058      0.3363419      0.7783813
Xe        0.6964798      0.7179260      0.7693787
Xe        0.5203323      0.5078125      0.7734222
Xe        0.4762650      0.7564316      0.7426834
Xe        0.7306976      0.5939255      0.7355347
Xe        0.4647141      0.5797272      0.7674789
Xe        0.6836395      0.5807648      0.7338257
Xe        0.7257919      0.2985001      0.7551346
Xe        0.2517090      0.4708099      0.7651291
Xe        0.5542221      0.4885635      0.7362823
Xe        0.7093430      0.4938049      0.7729874
Xe        0.4546204      0.4683609      0.7371826
Xe        0.5218811      0.7102737      0.7360382
Xe        0.4333115      0.5414658      0.7648315
Xe        0.5521774      0.7718353      0.7555771
Xe        0.5162277      0.3028564      0.7276306
Xe        0.4907761      0.4741592      0.7715836
Xe        0.6815338      0.4776077      0.7336197
Xe        0.4658737      0.5153656      0.7448807
Xe        0.2624054      0.7188797      0.7451706
Xe        0.5076828      0.5601654      0.7472763
Xe        0.2500610      0.3379898      0.7374802
Xe        0.7150421      0.7533264      0.7516785
Xe        0.7024841      0.3374481      0.7265778
Xe        0.5540314      0.5373154      0.7264252
Xe        0.6813889      0.5271606      0.7493210
Xe        0.5332260      0.5930710      0.7670822
Xe        0.2618637      0.5549164      0.7425232
Xe        0.5534897      0.5445557      0.7670212
Xe        0.4395218      0.3222504      0.7733841
Xe        0.4380646      0.7267380      0.7316818
Xe        0.2961578      0.2879028      0.7804718
Xe        0.4788284      0.7196274      0.7694244
Xe        0.6721878      0.2938919      0.7426834
Xe        0.2963638      0.5093155      0.7429352
Xe        0.7660828      0.7684784      0.7520752
Xe        0.7931900      0.7415848      0.7742767
Xe        0.7517395      0.4708099      0.7651291
Xe        0.7624359      0.7188797      0.7451706
Xe        0.7500916      0.3379898      0.7374802
Xe        0.7618866      0.5549164      0.7425232
Xe        0.2257614      0.7985306      0.7551346
Xe        0.3093109      0.7827225      0.7288284
Xe        0.4706726      0.8066330      0.7433319
Xe        0.7257919      0.7985306      0.7551346
Xe        0.2961578      0.7879333      0.7804718
Xe        0.6721878      0.7939224      0.7426834
Xe        0.4541321      0.4160233      0.1942062
Xe        0.3540268      0.3166580      0.1940155
Xe        0.2794724      0.3921280      0.1944733
Xe        0.3793335      0.4911423      0.1943741
Xe        0.6028671      0.8110580      0.6890335
Xe        0.5291519      0.8109131      0.6145401
Xe        0.7038727      0.8121872      0.5905762
Xe        0.3528824      0.8110580      0.6890335
Xe        0.2791367      0.8109131      0.6145401
Xe        0.4538193      0.8122025      0.5905685
Xe        0.6282501      0.8122635      0.5143585
Xe        0.3782730      0.8122635      0.5143661
Xe        0.7041321      0.6659698      0.1941757
Xe        0.6039886      0.5666809      0.1940231
Xe        0.7038803      0.8122025      0.3406296
Xe        0.3528824      0.8110580      0.4390182
Xe        0.4541473      0.6659622      0.1941986
Xe        0.3540268      0.5666733      0.1940155
Xe        0.2794724      0.6421127      0.1944809
Xe        0.3793259      0.7411652      0.1943817
Xe        0.2791519      0.8108978      0.3645935
Xe        0.4538269      0.8122177      0.3406296
Xe        0.6044922      0.2469482      0.2646027
Xe        0.7745514      0.3928909      0.4389801
Xe        0.7041168      0.4160309      0.1941910
Xe        0.6039886      0.3166656      0.1940231
Xe        0.5295105      0.3921204      0.1944580
Xe        0.6293640      0.4911346      0.1943817
Xe        0.7589111      0.1856308      0.6270523
Xe        0.5107498      0.1749878      0.6165237
Xe        0.6325455      0.1748886      0.4968414
Xe        0.6422653      0.1857758      0.7446289
Xe        0.4717026      0.1756821      0.6314011
Xe        0.2231674      0.1853714      0.6124268
Xe        0.3372879      0.1756287      0.4967957
Xe        0.3554916      0.1853256      0.7449722
Xe        0.7592392      0.1852112      0.3402328
Xe        0.5107040      0.1758728      0.3212433
Xe        0.6466446      0.1758118      0.4574661
Xe        0.4716644      0.1749039      0.3361435
Xe        0.2235336      0.1858444      0.3256378
Xe        0.3416290      0.1855774      0.2095718
Xe        0.3513947      0.1749725      0.4574203
Xe        0.8331528      0.2247772      0.6115875
Xe        0.7952881      0.1874847      0.6115952
Xe        0.8327484      0.2251358      0.3265610
Xe        0.7949295      0.1878891      0.3265381
Xe        0.2087326      0.6414185      0.5144730
Xe        0.2089996      0.6669540      0.6886520
Xe        0.2089539      0.7417679      0.6136093
Xe        0.2092667      0.5670319      0.5898972
Xe        0.2087326      0.3913803      0.5144806
Xe        0.2089844      0.4169006      0.6886597
Xe        0.2089844      0.4918137      0.6136017
Xe        0.2092438      0.3170471      0.5898895
Xe        0.2087173      0.6414108      0.2644730
Xe        0.2089996      0.6669540      0.4386368
Xe        0.2089539      0.7417679      0.3635788
Xe        0.2092743      0.5670395      0.3398438
Xe        0.2087250      0.3913803      0.2644806
Xe        0.2089844      0.4918137      0.3635635
Xe        0.8448029      0.5093079      0.3212585
Xe        0.8354721      0.2608490      0.3402710
Xe        0.8353577      0.3929672      0.2092743
Xe        0.8353424      0.7968903      0.6124573
Xe        0.8450470      0.5483551      0.6314316
Xe        0.8355026      0.6661835      0.7448807
Xe        0.8448410      0.6841278      0.4968414
Xe        0.8456802      0.5092621      0.6165314
Xe        0.8350601      0.2611771      0.6270599
Xe        0.8351135      0.3794098      0.7445831
Xe        0.8456650      0.3888779      0.4968872
Xe        0.8348694      0.7965240      0.3256302
Xe        0.8458252      0.5484009      0.3361588
Xe        0.8458252      0.6702957      0.4573364
Xe        0.8349152      0.6797714      0.2096176
Xe        0.3782654      0.8122559      0.2643204
Xe        0.6282501      0.8122559      0.2643204
Xe        0.6276627      0.2252274      0.8187256
Xe        0.6275787      0.1873779      0.7812958
Xe        0.3426514      0.2255249      0.8183823
Xe        0.3425598      0.1877213      0.7809906
Xe        0.2791977      0.6659088      0.7599335
Xe        0.4716721      0.3736496      0.8301086
Xe        0.2232285      0.3926239      0.8207932
Xe        0.3553543      0.2616730      0.8206558
Xe        0.3373947      0.5097656      0.8304443
Xe        0.7592468      0.6648331      0.8206558
Xe        0.5107117      0.6837463      0.8303604
Xe        0.6465149      0.5492401      0.8301392
Xe        0.6285095      0.7972488      0.8208542
Xe        0.4716187      0.6689148      0.8309860
Xe        0.3512726      0.5492859      0.8309555
Xe        0.3417511      0.7969513      0.8204651
Xe        0.7588806      0.3780136      0.8201828
Xe        0.5107498      0.3885193      0.8311310
Xe        0.6421585      0.2620163      0.8202133
Xe        0.6326218      0.5097275      0.8311691
Xe        0.7952805      0.3934555      0.8186798
Xe        0.8331451      0.3938370      0.7813644
Xe        0.7949600      0.6784744      0.8183212
Xe        0.8327637      0.6788330      0.7810287
Xe   0.01475868 0.16496469 0.62733960
Xe   0.38075337 0.44479108 0.96163917
Xe   0.67760450 0.83172452 0.27951738
Xe   0.63568276 0.65719539 0.13669805
Xe   0.55309010 0.20997646 0.35756326
Xe   0.03285756 0.79164213 0.40771043
Xe   0.41378754 0.26250735 0.80378163
Xe   0.44233373 0.83040023 0.71108007
Xe   0.23987640 0.75731313 0.00832843
Xe   0.82772219 0.71359622 0.00772513
Xe   0.13836080 0.69567394 0.28456447
Xe   0.84289289 0.55816656 0.54593879
Xe   0.06156563 0.51602411 0.33734551
Xe   0.41924661 0.27188051 0.14548264
Xe   0.36172751 0.75584167 0.83491760
Xe   0.99221599 0.69215721 0.63824308
Xe   0.70890230 0.00540024 0.97327834
Xe   0.35167745 0.90684229 0.57404357
Xe   0.50138319 0.68095940 0.16321366
Xe   0.53349030 0.84118599 0.54125959
Xe   0.43972927 0.22165981 0.43329901
Xe   0.33947909 0.01873161 0.50963801
Xe   0.19236316 0.23006181 0.96904069
Xe   0.58546203 0.28116539 0.80675399
Xe   0.85915244 0.43772808 0.71293408
Xe   0.21881990 0.42903179 0.86748087
Xe   0.11274280 0.57508832 0.49043557
Xe   0.85504711 0.53079754 0.02561801
Xe   0.72680992 0.91787821 0.86646557
Xe   0.55077988 0.23580047 0.23104768
Xe   0.50207472 0.81774575 0.92221898
Xe   0.22501472 0.64849913 0.73035610
Xe   0.84905827 0.33672750 0.70862275
Xe   0.04429076 0.88977343 0.05757799
Xe   0.21456739 0.79025900 0.18772808
Xe   0.41809887 0.33347559 0.11624485
Xe   0.70746028 0.61584759 0.88744855
Xe   0.78418189 0.30578282 0.00937316
Xe   0.49610066 0.33465275 0.06951148
Xe   0.75207478 0.59112716 0.78605062
Xe   0.51711303 0.57661861 0.91403770
Xe   0.10445850 0.70748973 0.54218656
Xe   0.56799591 0.73443198 0.15726899
Xe   0.68577105 0.14661565 0.63253385
Xe   0.74358445 0.71796644 0.79020011
Xe   0.46337551 0.42202768 0.85756326
Xe   0.10956445 0.45950562 0.93041497
Xe   0.81808418 0.84967631 0.67304301
Xe   0.26469982 0.97193938 0.98618311
Xe   0.53318131 0.77479398 0.14916128
Xe   0.70082402 0.83694822 0.05289876
Xe   0.91667157 0.45297235 0.37875220
Xe   0.85398763 0.12937021 0.16948205
Xe   0.43677163 0.57055622 0.91000593
Xe   0.81649500 0.69295174 0.30960861
Xe   0.87575042 0.28465274 0.32246912
Xe   0.00357563 0.85389936 0.06742201
Xe   0.19601236 0.42544144 0.19827841
Xe   0.18977340 0.11087404 0.77377868
Xe   0.52208650 0.95729840 0.83874339
Xe   0.72781050 0.58643323 0.98226893
Xe   0.00807828 0.29985285 0.44477633
Xe   0.66933489 0.77241027 0.20145674
Xe   0.17102708 0.65996176 0.47937021
Xe   0.35628310 0.98685998 0.44548264
Xe   0.48106241 0.80541497 0.54610062
Xe   0.79555625 0.52797234 0.28937611
Xe   0.19679223 0.50523835 0.40894645
Xe   0.74080342 0.65743089 0.86598003
Xe   0.38012066 0.04296645 0.50360507
Xe   0.01440553 0.08927310 0.19866098
Xe   0.40479696 0.39535022 0.91166866
Xe   0.59377575 0.57655972 0.79966158
Xe   0.62101233 0.17970866 0.57757503
Xe   0.47460273 0.46977636 0.93939084
Xe   0.28783110 0.20434079 0.93653619
Xe   0.19995585 0.72761923 0.92926723
Xe   0.38628608 0.80772519 0.77386695
Xe   0.02981165 0.43687466 0.27988523
Xe   0.70512062 0.51082993 0.20231017
Xe   0.79052383 0.17884050 0.37610358
Xe   0.33407888 0.62371987 0.80273694
Xe   0.83656567 0.33343142 0.49383461
Xe   0.84187758 0.41261038 0.84515893
Xe   0.19832253 0.33176869 0.23959684
Xe   0.13560918 0.81253684 0.15123603
Xe   0.08540317 0.46687758 0.71839315
Xe   0.42110065 0.68123901 0.79967630
Xe   0.83112127 0.08067981 0.20851971
Xe   0.56628901 0.78390229 0.10241318
Xe   0.68712479 0.22834019 0.53154796
Xe   0.85179520 0.72847265 0.12399942
Xe   0.59259856 0.42349914 0.87411714
Xe   0.92161566 0.80907887 0.10295763
Xe   0.89658624 0.53756624 0.24855798
Xe   0.55211890 0.57380813 0.98959678
Xe   0.19168629 0.83168042 0.33672750
Xe   0.99420249 0.66817248 -.00404650
Xe   0.14314303 0.97314602 0.84983814
Xe   0.13827252 0.01902590 0.49106830
Xe   0.77527958 0.35219246 0.00214832
Xe   0.04829311 0.69543850 0.67005593
Xe   0.54000884 0.91849619 0.11932019
Xe   0.58118016 0.17747204 0.33104765
Xe   0.20247205 0.34208357 0.29196584
Xe   0.96359622 0.51553857 0.49652737
Xe   0.56908476 0.87249851 0.35235432
Xe   0.29952917 0.84791052 0.48756620
Xe   0.80456156 0.06334608 0.50000000
Xe   0.86215419 0.39265743 0.56190407
Xe   0.11171278 0.92213064 0.99039143
Xe   0.19683637 0.72857565 0.52873749
Xe   0.86608303 0.61181575 0.40910828
Xe   0.70130956 0.49198061 0.93297529
Xe   0.03015009 0.02073278 0.84723365
Xe   0.57252795 0.95323718 0.82973808
Xe   0.66286051 0.73546201 0.14814597
Xe   0.69967628 0.88256329 0.27894351
Xe   0.23073867 0.55363452 0.38441730
Xe   0.19986758 0.27939966 0.65793115
Xe   0.89228958 0.89542377 0.46049148
Xe   0.60825491 0.98837548 0.34674808
Xe   0.14143614 0.00977045 0.12520601
Xe   0.73947912 0.02685403 0.25831372
Xe   0.84145087 0.26743671 0.28615364
Xe   0.84015596 0.77204239 0.97686875
Xe   0.42182165 0.89043558 0.64221603
Xe   0.03797822 0.63959682 0.58942026
Xe   0.07422014 0.87628013 0.53487343
Xe   0.18209241 0.66793704 0.32982638
Xe   0.14184815 0.38273984 0.60373747
Xe   0.24324603 0.35743085 0.14401118
Xe   0.68712479 0.91422898 0.06125662
Xe   0.56503826 0.13032667 0.67856097
Xe   0.96275753 0.24504121 0.66542083
Xe   0.05520895 0.30809298 0.47882578
Xe   0.81409651 0.40113303 0.40879929
Xe   0.59308416 0.52239549 0.21130076
Xe   0.12202767 0.08478517 0.64077401
Xe   0.40335494 0.08053267 0.82316071
Xe   0.84339321 0.66452324 0.11821660
Xe   0.50825489 0.23409359 0.86539143
Xe   0.59826368 0.84318721 0.59598291
Xe   0.54308420 0.85432613 0.39334905
Xe   0.73752213 0.37853149 0.98172456
Xe   0.35226604 0.08958211 0.18079753
Xe   0.83628607 0.54458505 0.49829310
Xe   0.68975866 0.88891995 0.11127134
Xe   0.66481757 0.41031489 0.80635667
Xe   0.82148319 0.92766333 0.83344615
Xe   0.69333434 0.86258090 0.32293996
Xe   0.69158328 0.86525899 0.62494117
Xe   0.05890229 0.25766626 0.46330196
Xe   0.48390234 0.12736905 0.88908184
Xe   0.83696294 0.27155679 0.56796646
Xe   0.48736018 0.17608888 0.67750144
Xe   0.82844317 0.69190699 0.68641847
Xe   0.30100060 0.18273984 0.23955269
Xe   0.79768980 0.81805474 0.50685698
Xe   0.93151855 0.24677752 0.71403772
Xe   0.18331371 0.23125367 0.17891407
Xe   0.43017954 0.61562687 0.10954974
Xe   0.43006179 0.55778402 0.82364625
Xe   0.62452912 0.16297823 0.11837846
Xe   0.87279278 0.19170099 0.52912009
Xe   0.20442908 0.74845499 0.30534136
Xe   0.83004707 0.30392879 0.67301351
Xe   0.20912302 0.78724247 0.59459978
Xe   0.53438789 0.50479692 0.00760742
Xe   0.18362272 0.77917892 0.40922603
Xe   0.78532958 0.21818717 0.44680694
Xe   0.42196882 0.46096233 0.00270748
Xe   0.28369629 0.97115952 0.55660683
Xe   0.04436433 0.43265155 0.15317833
Xe   0.10728370 0.72040910 0.47127724
Xe   0.72110069 0.13482931 0.51545024
Xe   0.30959389 0.01118305 0.84549737
Xe   0.50857860 0.65029430 0.20504710
Xe   0.87485290 0.52644205 0.07753091
Xe   0.32859033 0.20139788 0.42650089
Xe   0.18415245 0.66787815 0.82352853
Xe   0.73821366 0.84613007 0.63082695
Xe   0.41862863 0.36281636 0.79680699
Xe   0.43771335 0.87090939 0.46140379
Xe   0.29858741 0.19658622 0.81130081
Xe   0.70007360 0.54786640 0.78403473
Xe   0.17679518 0.72501469 0.47077692
Xe   0.20595938 0.28858152 0.70587111
Xe   0.80002940 0.29933786 0.26614186
Xe   0.49190700 0.12820777 0.58687460
Xe   0.30875516 0.83135670 0.43316656
Xe   0.38054737 0.17052677 0.41611242
Xe   0.13602120 0.58344615 0.96372873
Xe   0.64112711 0.93312246 0.68197471
Xe   0.55307537 0.17872278 0.39393762
Xe   0.31469983 0.55491471 0.95759273
Xe   0.43952328 0.68884635 0.06278694
Xe   0.94969100 0.57536787 0.56444967
Xe   0.39323133 0.67707473 0.96477342
Xe   0.80653328 0.39685109 0.30640084
Xe   0.15320776 0.76027077 0.02202766
Xe   0.19767511 0.12810478 0.43098885
Xe   0.66553855 0.46352264 0.18390229
Xe   0.45450267 0.72155678 0.85782814
Xe   0.63577104 0.20183931 0.26209536
Xe   0.67770749 0.29190701 0.80653328
Xe   0.34355503 0.18119483 0.15233961
Xe   0.84512949 0.04763096 0.68861097
Xe   0.17155680 0.13608006 0.87595642
Xe   0.47339612 0.09561507 0.79980874
Xe   0.95822549 0.31724542 0.64546794
Xe   0.54164219 0.40925545 0.87861979
Xe   0.33296058 0.86742204 0.74512947
Xe   0.19078870 0.43881696 0.40972629
Xe   0.56804001 0.99944079 0.44115657
Xe   0.57953209 0.53459388 0.95191294
Xe   0.43839023 0.22149795 0.78685993
Xe   0.67163038 0.76899648 0.80082405
Xe   0.16053560 0.39795467 0.89824897
Xe   0.70359039 0.62645674 0.84153920
Xe   0.41490585 0.97976750 0.46187463
Xe   0.52841377 0.86598003 0.79215717
Xe   0.15584166 0.35800472 0.27533844
Xe   0.37235138 0.64795470 0.78403473
Xe   0.96881998 0.34486464 0.22963507
Xe   0.21339023 0.55394351 0.07152737
Xe   0.74473220 0.35250145 0.06581813
Xe   0.43215126 0.44505593 0.95849031
Xe   0.95072103 0.68288702 0.51225722
Xe   0.83132726 0.64414364 0.15829901
Xe   0.20404649 0.55840200 0.43952328
Xe   0.99059743 0.30979991 0.26172751
Xe   0.51283109 0.99567395 0.85503238
Xe   0.38750735 0.86536199 0.44686580
Xe   0.21347852 0.41971749 0.48110652
Xe   0.96238965 0.40516481 0.24791053
Xe   0.30953503 0.21144791 0.13557975
Xe   0.28081223 0.95217776 0.19245145
Xe   0.59370220 0.78507948 0.74548262
Xe   0.45581225 0.07758976 0.23060624
Xe   1.00406122 0.25641555 0.85351682
Xe   0.92455858 0.92058563 0.86255151
Xe   0.63502055 0.85241318 0.62864923
Xe   0.15419364 0.56645083 0.34112716
Xe   0.08407887 0.40103000 0.64515895
Xe   0.50573868 0.82157153 0.69726312
Xe   0.57107127 0.23246028 0.91318429
Xe   0.89742494 0.04945556 0.88237196
Xe   0.72766334 0.21028547 0.27608889
Xe   0.25391409 0.43862566 0.18346086
Xe   0.53955269 0.21281637 0.74567389
Xe   0.83734548 0.17476457 0.07413185
Xe   0.46408182 0.63936138 0.94276047
Xe   0.81737787 0.05173632 0.95631254
Xe   0.88304889 0.71970278 0.68878752
Xe   0.39062685 0.19710125 0.26550913
Xe   0.75722480 0.11386109 0.25637141
Xe   0.68925840 0.10450266 0.47121835
Xe   0.91689229 0.69695413 0.78758091
Xe   0.65392882 0.92024726 0.49860209
Xe   0.18469688 0.76369923 0.45088288
Xe   0.95242786 0.83020896 0.54242200
Xe   0.33137140 0.93937612 0.09665979
Xe   0.60342848 0.00270748 0.11158034
Xe   0.00025015 0.73839021 0.66984987
Xe   0.59111243 0.61263978 0.09177458
Xe   0.98500592 0.06611242 0.80481166
Xe   0.16646557 0.66249263 0.28275457
Xe   0.68959683 0.89426130 0.99256921
Xe   0.84688056 0.64174515 0.22816361
Xe   0.47982639 0.21122719 0.30026487
Xe   0.57007062 0.84969097 0.50937319
Xe   0.78044438 0.80801940 0.28718364
Xe   0.47317544 0.83943498 0.77130663
Xe   0.73248971 0.06188935 0.68697762
Xe   0.68331373 0.37561801 0.15016186
Xe   0.91783404 0.17767805 0.41823131
Xe   0.58965570 0.42766333 0.03221012
Xe   0.43655092 0.55553269 0.96940845
Xe   0.96443498 0.16422896 0.71124190
Xe   0.84533554 0.63557976 0.82595646
Xe   0.17937021 0.98774278 0.82316071
Xe   0.79301065 0.88730133 0.18284285
Xe   0.65526783 0.05971160 0.19599764
Xe   0.15695998 0.68505001 0.69314301
Xe   0.40567982 0.82035023 0.45094174
Xe   0.71440554 0.30725428 0.11258093
Xe   0.00473808 0.96243376 0.86656857
Xe   0.71216893 0.39443791 0.83110654
Xe   0.41927603 0.04309888 0.65434080
Xe   0.76316953 0.41424370 0.19860211
Xe   0.22148323 0.29404062 0.97320485
Xe   0.38493231 0.03627133 0.06777516
Xe   0.81030017 0.36016774 0.38141555
Xe   0.11397881 0.23115067 0.53369629
Xe   0.80796057 0.19249558 0.10771042
Xe   0.50637138 0.24111241 0.10347264
Xe   0.29080343 0.82207179 0.53663921
Xe   0.14592408 0.89848441 0.75550330
Xe   0.17610359 0.34524721 0.85487050
Xe   0.98909658 0.33359328 0.58388758
Xe   0.49574754 0.02838434 0.29994115
Xe   0.07301354 0.66817248 0.20921130
Xe   0.73004705 0.36393467 0.14006770
Xe   0.35641554 0.20807828 0.65139788
Xe   0.74125957 0.30136847 0.16787817
Xe   0.31444970 0.03691878 0.39726308
Xe   0.14802825 0.70142728 0.92021775
Xe   0.63297528 0.12214538 0.63865507
Xe   0.14922012 0.17912008 0.41492054
Xe   0.63746321 0.25815186 0.05868158
Xe   0.17963508 0.34049439 0.11414067
Xe   0.83062100 0.69755739 0.38531491
Xe   0.50416422 0.65467924 0.06820188
Xe   0.74089175 0.16783403 0.48552087
Xe   0.26290467 0.44611537 0.93865508
Xe   0.09053855 0.71480280 0.70540023
Xe   0.31339023 0.83287233 0.72142440
Xe   0.27695704 0.86052090 0.13000295
Xe   0.62772220 0.84819013 0.29998529
Xe   0.33855209 0.15253091 0.57049733
Xe   0.50423783 0.80952030 0.33070925
Xe   0.36353737 0.52140969 0.14692466
Xe   0.66646558 0.80523837 0.83640379
Xe   0.85219246 0.01490583 0.98368156
Xe   0.63809597 0.45847559 0.02258682
Xe   0.52570629 0.74573278 0.07959094
Xe   0.38599178 0.89395231 0.49248090
Xe   0.59613007 0.08179812 0.68581522
Xe   0.97882587 0.38815480 0.43182755
Xe   0.62276340 0.49278989 0.07020306
Xe   0.65625370 0.17018835 0.16419953
Xe   0.16219835 0.77816361 0.36343437
Xe   0.45615068 0.09910242 0.05575338
Xe   0.80741614 0.32477930 0.42388168
Xe   0.53201884 0.85759276 0.65363455
Xe   0.95791644 0.34558564 0.82188052
Xe   0.59960270 0.19786638 0.42018834
Xe   0.61951149 0.85145676 0.16112418
Xe   0.87666273 0.43849322 0.58243084
Xe   0.40126547 0.15107417 0.47395527
Xe   0.08608004 0.67869335 0.49158332
Xe   0.86471450 0.59111243 0.45238376
Xe   0.73478520 0.52092409 0.85929960
Xe   0.60507649 0.97270459 0.77739847
Xe   0.36896706 0.23968510 0.13658033
Xe   0.21670100 0.46353740 0.65938789
Xe   0.15456150 0.52813417 0.58527076
Xe   0.16661271 0.42760447 0.45559153
Xe   0.83582991 0.48893470 0.70166278
Xe   0.67492646 0.85311949 0.73602122
Xe   0.79676276 0.29540908 0.17595644
Xe   0.78549147 0.08265156 0.60838729
Xe   0.89876401 0.25762212 0.85644495
Xe   0.32105651 0.07629488 0.33696291
Xe   0.66174221 0.51287520 0.79851383
Xe   0.66206592 0.20033844 0.35629785
Xe   0.26951149 0.01005003 0.59139204
Xe   0.13947912 0.33917010 0.36149204
Xe   0.77364630 0.13131253 0.03054738
Xe   0.01787816 0.65256035 0.08363743
Xe   0.04140671 0.46530312 0.11789288
Xe   0.64249563 0.46959975 0.12772219
Xe   0.47897291 0.85313421 0.36221305
Xe   0.86493522 0.65979987 0.69713068
Xe   0.99189228 0.13219541 0.48226902
Xe   0.88048857 0.48472634 0.50719541
Xe   0.32863450 0.94445258 0.54228961
Xe   0.68580043 0.83640379 0.90464979
Xe   0.95910829 0.24907298 0.58705121
Xe   0.92280757 0.35111830 0.58516777
Xe   0.82121837 0.65082401 0.53145969
Xe   0.42027664 0.32236612 0.17398471
Xe   0.17196882 0.48547676 0.18403473
Xe   0.63324016 0.81954092 0.74404061
Xe   0.02561801 0.34969100 0.27829605
Xe   0.45862272 0.90824014 0.97435260
Xe   0.92404360 0.07832549 0.36605358
Xe   0.36368451 0.07117422 0.08660977
Xe   0.01970277 0.53147441 0.37276340
Xe   0.56867272 -.00072101 0.71347851
Xe   0.20235433 0.06249265 0.33741906
Xe   0.40887287 0.74193645 0.14014126
Xe   0.31868747 0.12408769 0.98337263
Xe   0.44966158 0.37158623 0.03531489
Xe   0.82654506 0.44349617 0.22632430
Xe   0.19362861 0.77311653 0.78031194
Xe   0.78362274 0.16522954 0.07822248
Xe   0.81346381 0.32661861 0.57604474
Xe   0.57508832 0.03244555 0.87242496
Xe   0.15426722 0.14252502 0.23329900
Xe   0.34501177 0.27302825 0.95026487
Xe   0.29741025 0.56792229 0.11193349
Xe   0.50351679 0.22600059 0.47610357
Xe   0.91296351 0.40169218 0.56153619
Xe   0.74467337 0.20813715 0.78122425
Xe   0.22323425 0.27678046 0.61706889
Xe   0.11350795 0.80581224 0.00027958
Xe   0.06181578 0.18346086 0.90969694
Xe   0.85341382 0.32769278 0.15400235
Xe   0.59245145 0.71316952 0.21196292
Xe   0.73702180 0.82697177 0.38372570
Xe   0.56724542 0.83347559 0.75191289
Xe   0.88522661 0.51288992 0.12745732
Xe   0.64330494 0.61820191 0.03794879
Xe   0.36355209 0.51406711 0.09253973
Xe   0.99938196 0.37454385 0.15466450
Xe   0.88772810 0.53226900 0.36133018
Xe   0.43438789 0.42495584 0.03344614
Xe   0.48157743 0.25216302 0.04295174
Xe   0.85491467 0.73658031 0.78246027
Xe   0.02920836 0.05968217 0.53169513
Xe   0.55803412 0.89839613 0.39015597
Xe   0.82261622 0.63154793 0.36852559
Xe   0.57492644 0.23126839 0.83889055
Xe   0.37042379 0.47074750 0.81405240
Xe   0.25875515 0.06261036 0.72005594
Xe   0.29723367 0.54190701 0.85013247
Xe   0.38902295 0.63818419 0.87704533
Xe   0.18419658 0.35822544 0.97722197
Xe   0.40104473 0.97494119 0.40798998
Xe   0.49923486 0.33775753 0.79607123
Xe   0.51759857 0.54530603 0.03003237
Xe   0.21455269 0.27411711 0.93144494
Xe   0.38672748 0.81309593 0.82382286
Xe   0.32704532 0.39139202 0.10513537
Xe   0.25094175 0.73824310 0.83271044
Xe   0.77374929 0.09337846 0.55410540
Xe   0.36934963 0.19136257 0.88772810
Xe   0.08844909 0.77071804 0.68794876
Xe   0.89081818 0.70978516 0.22455856
Xe   0.59281927 0.08313714 0.60685700
Xe   0.68374044 0.32583871 0.16820188
Xe   0.67563272 0.90670985 0.36408183
Xe   0.24249558 0.47174811 0.84457034
Xe   0.90838730 0.20445852 0.37460271
Xe   0.27875221 0.89807242 0.66138911
Xe   0.01408181 0.62429368 0.49512947
Xe   0.66540617 0.22179224 0.78477049
Xe   0.03603590 0.89343733 0.38229844
Xe   0.95679814 0.31708357 0.34739551
Xe   0.29947028 0.49471745 0.17832549
Xe   0.34192172 0.25893173 0.98996472
Xe   0.34585050 0.15794586 0.80957919
Xe   0.33811066 0.50038260 0.89667451
Xe   0.87954676 0.44476163 0.98231316
Xe   0.94489402 0.75445849 0.81393468
Xe   0.26374337 0.28301942 0.10697469
Xe   0.01849617 0.41077104 0.11068276
Xe   0.72448498 0.97636843 0.68905240
Xe   1.00135374 0.46877575 0.08678634
Xe   0.68833137 0.03197469 0.21767217
Xe   0.76159507 0.37170395 0.19276045
Xe   0.64858741 0.92838430 0.91224247
Xe   0.60017657 0.36171278 0.12856093
Xe   0.70721012 0.58329898 0.10450266
Xe   0.13402002 0.07304297 0.46615657
Xe   0.19758682 0.69830787 0.25963804
Xe   0.76484698 0.93899351 0.83691877
Xe   0.86762804 0.48415244 0.39249557
Xe   0.88524133 0.48372573 0.23953795
Xe   0.02179223 0.72391111 0.99976456
Xe   0.22966450 0.97355801 0.43841967
Xe   0.38582993 0.54237789 0.21063861
Xe   0.44757211 0.02319011 0.58961153
Xe   0.63900822 0.59567392 0.13291642
Xe   0.92678046 0.75512069 0.24689522
Xe   0.28156269 0.61656857 0.01205121
Xe   0.66911417 0.68410832 0.16471455
Xe   0.34520304 0.28038552 0.04852855
Xe   0.22089465 0.17012949 0.76034433
Xe   0.43705121 0.72822249 0.81063861
Xe   0.04280459 0.83582991 0.75351679
Xe   0.92236608 0.52907598 0.54114187
Xe   0.83187169 0.53176868 0.37623602
Xe   0.59392291 0.92207181 0.72285169
Xe   0.42816362 0.84939671 0.40316364
Xe   0.96611238 0.72770751 0.22045322
Xe   0.16648029 0.26414067 0.33534434
Xe   0.59248090 0.97726607 0.57851678
Xe   0.45195705 0.85760742 0.31314009
Xe   0.64452618 0.32407299 0.82388175
Xe   0.71568573 0.84178931 0.54966158
Xe   0.22463213 0.91252208 0.83728665
Xe   0.60643029 0.04055327 0.79136252
Xe   0.28015009 0.98884642 0.45128018
Xe   0.36193350 0.99598289 0.54720426
Xe   0.43369630 0.03996469 0.27129194
Xe   0.44682166 0.07645674 0.59583580
Xe   0.59994113 0.26461154 0.15643024
Xe   0.62064451 0.21957034 0.31022662
Xe   0.12698646 0.44896996 0.98307824
Xe   0.12932608 0.29449677 0.51452327
Xe   0.42654505 0.90754855 0.39549735
Xe   0.21121249 0.28452033 0.33000293
Xe   0.23924369 0.13427016 0.94886702
Xe   0.87747204 0.01702472 0.66038847
Xe   0.12703061 0.75309008 0.38532960
Xe   0.73288697 0.10529724 0.64352560
Xe   0.83054739 0.14249559 0.11489111
Xe   0.02638317 0.58316660 0.13007651
Xe   0.82208651 0.61455268 0.25500295
Xe   0.70723957 0.80341375 0.80264860
Xe   0.79318714 0.13532960 0.34421718
Xe   0.59075928 0.50267804 0.99071515
Xe   0.61665690 0.82295471 0.07839906
Xe   0.50956446 0.06881990 0.81391996
Xe   0.41006476 0.49224544 0.13513832
Xe   0.30313420 0.17832549 0.18385816
Xe   0.19896999 0.42878163 0.91158038
Xe   0.47111535 0.98610950 0.17516187
Xe   0.81087404 0.91055036 0.59761626
Xe   0.25882873 0.41249266 0.13351972
Xe   0.76183045 0.32720718 0.88608003
Xe   0.22277811 0.43097410 0.73899353
Xe   0.75444376 0.08964097 0.13042967
Xe   0.47758979 0.11303709 0.10504708
Xe   0.83251911 0.51057976 0.52839905
Xe   0.28490287 0.18120953 0.63978809
Xe   0.17089465 0.38806650 0.16805473
Xe   0.87461740 0.29414362 0.25391409
Xe   0.97399944 0.62951738 0.46773103
Xe   0.25004414 0.90828431 0.45918187
Xe   0.22416128 0.20803413 0.18878752
Xe   0.82427901 0.37168923 0.53844905
Xe   0.16016775 0.33204827 0.19368747
Xe   0.14914656 0.47806060 0.40578282
Xe   0.46268395 0.29645380 0.13238670
Xe   0.45768100 0.27379343 0.78912598
Xe   0.88971454 0.61065334 0.22570629
Xe   0.74743968 0.17954679 0.14423190
Xe   0.35334021 0.99627727 0.72633904
Xe   0.38338730 0.82642734 0.08194526
Xe   0.83681577 0.25088286 0.18452030
Xe   0.38310769 0.24301060 0.92239553
Xe   0.45952031 0.79102415 0.78968513
Xe   0.75448799 0.96053565 0.64106828
Xe   0.53123897 0.18956740 0.65581226
Xe   0.36021188 0.70307535 0.79072982
Xe   0.96339023 0.48393175 0.56659800
Xe   0.85360509 0.28241614 0.93134195
Xe   0.07135080 0.57154208 0.27970865
Xe   0.16649500 0.57551503 0.48238671
Xe   0.89318717 0.72017366 0.52385229
Xe   0.04986757 0.18866980 0.66258091
Xe   0.30116245 0.19287816 0.28605062
Xe   0.71683341 0.37264568 0.19607122
Xe   0.00885815 0.71346378 0.23428488
Xe   0.17851678 0.01784874 0.56234550
Xe   0.24876398 0.88197470 0.40999117
Xe   0.35047087 0.20420836 0.30710712
Xe   0.81764275 0.60161865 0.32296938
Xe   0.88600647 0.67925251 0.31493527
Xe   0.12764862 0.59808713 0.13337258
Xe   0.22386698 0.93248975 0.03260742
Xe   0.99125952 0.97251332 0.35768101
Xe   0.19757210 0.09071513 0.58633018
Xe   0.39517364 0.18354915 0.57229257
Xe   0.43771335 0.71306652 0.93112123
Xe   0.96055031 0.65875518 0.40476751
Xe   0.02439670 0.77626550 0.63017952
Xe   0.52754563 0.14841084 0.87708944
Xe   0.82068861 0.75932902 0.01918776
Xe   0.51970279 0.80540025 0.23103297
Xe   0.38933197 0.08678634 0.44421718
Xe   0.48959681 0.92266035 0.88993526
Xe   0.97900230 0.52973807 0.08847852
Xe   0.04877869 0.73324019 0.71156567
Xe   0.00447322 0.68166572 0.59632140
Xe   0.37957621 0.40363449 0.83382875
Xe   0.51315480 0.58363748 0.17785463
Xe   0.62498528 0.26983520 0.86155093
Xe   0.56340498 0.81022662 0.40013245
Xe   0.04467334 0.90857863 0.60292816
Xe   0.03185697 0.38432902 0.41977635
Xe   0.13933197 0.37235138 0.14170100
Xe   0.45017657 0.74276048 0.18360800
Xe   0.93532962 0.98624194 0.06921719
Xe   0.46589172 0.51580346 0.09134786
Xe   0.61826074 0.91403770 0.45013243
Xe   0.75969690 0.78602117 0.12816362
Xe   0.46650973 0.82663333 0.49577695
Xe   0.66497940 0.89130372 0.30328134
Xe   0.92645675 0.51764274 0.20625368
Xe   0.60501766 0.05103002 0.23537375
Xe   0.19649795 0.72547090 0.16483225
Xe   0.47597116 0.91720128 0.59701300
Xe   0.57380813 0.05718070 0.64779282
Xe   0.34826368 0.19974986 0.10360506
Xe   0.73082697 0.03468217 0.00690112
Xe   0.23303413 0.85935849 0.64192170
Xe   0.11883461 0.05297234 0.70912302
Xe   0.47202766 0.47351384 0.83166569
Xe   0.98650676 0.61517066 0.10631254
Xe   0.18890524 0.02810477 0.75266337
Xe   0.46580341 0.34008241 0.17157151
Xe   0.11056504 0.79849911 0.37238079
Xe   0.56675982 0.40132430 0.08384344
Xe   0.10498823 0.53713953 0.26868746
Xe   0.51734847 0.81218362 0.44059741
Xe   0.20887287 0.34579164 0.77870810
Xe   0.79938197 0.67370510 0.35990289
Xe   0.14676280 0.55017656 0.52227783
Xe   0.24398175 0.87216008 0.16321366
Xe   0.00896115 0.05868158 0.58312243
Xe   0.27832550 0.16339023 0.31044731
Xe   0.54708654 0.09249558 0.39480576
Xe   0.77055621 0.63690406 0.97881103
Xe   0.41728958 0.12669216 0.33176869
Xe   0.65123600 0.06384639 0.07569159
Xe   0.13281342 0.77813423 0.42597115
Xe   0.70332551 0.54395235 0.15963802
Xe   0.61703944 0.00488523 0.92026192
Xe   0.15924072 0.75850499 0.31365511
Xe   0.83840495 0.30114773 0.96983528
Xe   0.15675397 0.78513837 0.19480577
Xe   0.50055915 0.83213651 0.87669224
Xe   0.78677166 0.02975280 0.57720721
Xe   0.27407297 0.30142733 0.98881692
Xe   0.49767509 0.30045617 0.16271336
Xe   0.83190113 0.90975577 0.24896999
Xe   0.84645385 0.00366392 0.33181283
Xe   0.99626255 0.92048264 0.04742496
Xe   0.75934374 0.82806063 0.54432023
Xe   0.19668922 0.76311064 0.96280164
Xe   0.44520307 0.51711303 0.99293709
Xe   0.37767804 0.93031192 0.53387290
Xe   0.33582991 0.72235137 0.82970870
Xe   0.37151265 0.83594763 0.35126546
Xe   0.07639788 0.77786934 0.49464393
Xe   0.47055623 0.22685403 0.00047087
Xe   0.82011479 0.27738374 0.40347263
Xe   0.49036199 0.55694526 0.98366684
Xe   0.52866393 0.04286345 0.34305474
Xe   0.34667450 0.23510888 0.17853150
Xe   0.50887287 0.93741912 0.44549733
Xe   0.56108004 0.43372571 0.92369038
Xe   0.36539143 0.20257504 0.54743963
Xe   0.01753973 0.43662450 0.43469688
Xe   0.59498239 0.48156270 0.93790466
Xe   0.02700118 0.42460272 0.62190992
Xe   0.37479401 0.03162154 0.42794290
Xe   0.42085052 0.08040024 0.41808417
Xe   0.09161271 0.96536201 0.76272810
Xe   0.79134786 0.98384345 0.03376986
Xe   0.59692466 0.93603587 0.40445849
Xe   0.18665393 0.82801646 0.66306651
Xe   0.44064155 0.12645674 0.50158918
Xe   0.18326958 0.02679517 0.67598587
Xe   0.78388757 0.80042672 0.06209535
Xe   0.20522365 0.78833139 0.02533844
Xe   0.03013538 0.75428194 0.21465568
Xe   0.82981169 0.05005886 0.05011772
Xe   0.28443202 0.60017657 0.14473221
Xe   0.80515009 0.86002058 0.80512065
Xe   0.69545323 0.93279874 0.30207473
Xe   0.31859919 0.54483521 0.05516480
Xe   0.81390524 0.65400237 0.59982342
Xe   0.85036790 0.46115363 0.07733961
Xe   0.25529724 0.01861389 0.75837260
Xe   0.01489111 0.65417892 0.44078869
Xe   0.34093586 0.18316656 0.85718071
Xe   0.12036493 1.00139785 0.16258092
Xe   0.87552971 0.05879930 0.07345498
Xe   0.48522663 0.83989108 0.28088582
Xe   0.09089170 0.73616832 0.59573281
Xe   0.66427314 0.16414067 0.56159508
Xe   0.67302823 0.82036489 0.69214243
Xe   0.82232195 0.43694821 0.79807240
Xe   0.79190701 0.17263097 0.44215715
Xe   0.16940847 0.58992052 0.88228369
Xe   0.69755739 0.83774281 0.40824014
Xe   0.21247792 0.81664217 0.89424658
Xe   0.05763685 0.32068866 0.11855504
Xe   0.77664798 0.03441731 0.03616833
Xe   0.00846086 0.37583873 0.59127426
Xe   0.23485875 0.12048263 0.28761035
Xe   0.01718658 0.21394938 0.27892879
Xe   0.13443202 0.37673634 0.39443791
Xe   0.20694527 0.54268688 0.27610359
Xe   0.80560625 0.95263386 0.61761332
Xe   0.83925837 0.59551209 0.96138906
Xe   0.21309595 0.20247205 0.65834320
Xe   0.35609183 0.41615656 0.15831371
Xe   0.93184227 0.27648619 0.64501178
Xe   0.69093585 0.67685407 0.84866095
Xe   0.15138318 0.16336080 0.73909652
Xe   0.31930548 0.65623897 0.15289876
Xe   0.96134490 0.61589170 0.33419660
Xe   0.26965863 0.03613891 0.81163919
Xe   0.82511771 0.54562980 0.13569747
Xe   0.46063861 0.82339615 0.42945853
Xe   0.07773691 0.34121540 0.56280166
Xe   0.80451739 0.35235432 0.78238672
Xe   0.82791346 0.20871101 0.77502948
Xe   0.12342554 0.10957917 0.86505300
Xe   0.65194231 0.37819305 0.09096528
Xe   0.54849917 0.18930253 0.15248676
Xe   0.04226015 0.41349325 0.55856383
Xe   0.84795469 0.94411421 0.15966745
Xe   0.88999414 0.83677167 0.24171571
Xe   0.75754857 0.01249264 0.61278695
Xe   0.96864337 0.03303413 0.20219247
Xe   0.05391407 0.91059446 0.55157447
Xe   0.89895523 0.06024132 0.62345499
Xe   0.46434668 0.37694234 0.89586520
Xe   0.36397880 0.84139198 0.63271046
Xe   0.32995880 0.32046792 0.02299882
Xe   0.12422013 0.69424659 0.39729252
Xe   0.15233961 0.83084172 0.11272807
Xe   0.05965273 0.09461448 0.65439963
Xe   0.16942319 0.24708652 0.58397585
Xe   0.46446440 0.82299882 0.64970571
Xe   0.11512654 0.42461744 0.41137436
Xe   0.12758975 0.68032670 0.23812538
Xe   0.15456150 0.60079461 0.56959975
Xe   0.31049147 0.13490289 0.73769861
Xe   0.39256918 0.82580936 0.91665691
Xe   0.88800764 0.62632430 0.80278105
Xe   0.93693352 0.63968509 0.79540908
Xe   0.41057974 0.85498822 0.74067098
Xe   0.36627430 0.33919954 0.81609774
Xe   0.78969979 0.09274574 0.38471159
Xe   0.92385226 0.94819015 0.10860801
Xe   0.35204533 0.75969690 0.02410241
Xe   0.63933200 0.87985575 0.11849618
Xe   0.87085050 0.64980870 0.35064745
Xe   0.14748381 0.85922605 0.34334904
Xe   0.98054743 0.57158625 0.62426424
Xe   0.85572392 0.18971454 0.89801353
Xe   0.39211303 0.31933489 0.85607713
Xe   0.46453798 0.75194234 0.03796351
Xe   0.24354033 0.57589757 0.79068571
Xe   0.61915833 0.84462923 0.02550030
Xe   0.00515009 0.59885228 0.41653916
Xe   0.56138909 0.67825192 0.79515892
Xe   0.09674808 0.48316655 0.79646850
Xe   0.07474985 0.64579165 0.98827255
Xe   0.45288405 0.14417306 0.66286051
Xe   0.53070927 0.05547381 0.85693055
Xe   0.14838140 0.95977044 0.06767216
Xe   0.37903181 0.28081223 0.10615068
Xe   0.16896704 0.42399943 0.12239552
Xe   0.64633608 0.01344909 0.64003831
Xe   0.05703355 0.71035904 0.54383463
Xe   0.63743377 0.73538852 0.81224251
Xe   0.63385814 0.38251913 0.85035318
Xe   0.32873750 0.81044734 0.25647441
Xe   0.30950561 0.91187465 0.18593290
Xe   0.80211890 0.40513539 0.35378164
Xe   0.06358152 0.54068571 0.36821660
Xe   0.57667750 0.06808417 0.10000000
Xe   0.47788408 0.18788993 0.87477928
Xe   0.44910240 0.94465858 0.42981166
Xe   0.83528543 0.09315774 0.13509417
Xe   0.59317249 0.15276633 0.77469099
Xe   0.23163626 0.21006475 0.76339024
Xe   0.49354032 0.47152734 0.88318127
Xe   0.68100351 0.08993526 0.42658916
Xe   0.40256032 0.51290464 0.80884349
Xe   0.17190994 0.59411418 0.11567099
Xe   0.73384345 0.53216600 0.99326074
Xe   0.64979398 0.79673338 0.45821071
Xe   0.71990877 0.36896706 0.90540022
Xe   -.00285462 0.88078284 0.03019423
Xe   0.96394944 0.39053857 0.56402296
Xe   0.65522367 0.83223951 0.14049442
Xe   0.66108000 0.42695704 0.12536786
Xe   0.95993233 0.94195116 0.88042969
Xe   0.73522663 0.75479698 0.82380813
Xe   0.67742789 0.17419070 0.95519423
Xe   0.49930841 0.59368747 0.81296355
Xe   0.86618602 0.53112125 0.58003235
Xe   0.97617722 0.52636844 0.41605356
Xe   0.70276630 0.84796935 0.13791937
Xe   0.57057095 0.51193351 0.90260446
Xe   0.71921718 0.04783696 0.48799297
Xe   0.26586229 0.70220721 0.14103885
Xe   0.02879635 0.52146852 0.71831965
Xe   0.49973518 0.23206298 0.77430844
Xe   0.39317244 0.95432615 0.81665689
Xe   0.24149501 0.24605651 0.81422895
Xe   0.18048853 0.01783402 0.46683344
Xe   0.63955271 0.57820773 -.00537081
Xe   0.17320482 0.64682168 0.73028255
Xe   0.30075043 0.39198059 0.15310477
Xe   0.30217776 0.19458506 0.75729841
Xe   0.87090939 0.94602710 0.21383166
Xe   0.19020012 0.24668922 0.68934667
Xe   0.98530018 0.55641556 0.97929668
Xe   0.45900530 0.85133898 0.21655385
Xe   0.19056799 0.87199825 0.69858742
Xe   0.35360506 0.35890231 0.01374338
Xe   0.19736610 0.17242496 0.41802531
Xe   0.10462037 0.23213655 0.42603001
Xe   0.17679518 0.77879632 0.15454680
Xe   0.85781342 0.37897292 0.31096232
Xe   0.89127427 0.78659505 0.53118008
Xe   0.88585931 0.44226015 0.22485286
Xe   0.67316073 0.06097705 0.49542376
Xe   0.56854033 0.73903763 0.10528252
Xe   0.83346087 0.38098884 0.93449086
Xe   0.05972631 0.77224839 0.29786640
Xe   0.00941730 0.44356975 0.78599179
Xe   0.22922307 0.39383459 0.17099765
Xe   1.00173640 0.10426722 0.36016774
Xe   0.32118893 0.02074750 0.58221012
Xe   0.57520598 0.32139492 0.87650090
Xe   0.95038253 0.52942908 0.59186286
Xe   0.08429959 0.96272814 0.70479691
Xe   0.56400830 0.69096529 0.12441142
Xe   0.59156859 0.76197767 0.40673926
Xe   0.08063567 0.75494409 0.54046500
Xe   0.87523544 0.29735139 0.88750732
Xe   0.55248678 0.46490583 0.79989702
Xe   0.60876989 0.80716598 0.21990877
Xe   0.64919072 0.83101827 0.20685697
Xe   0.97227776 0.94779289 0.13615362
Xe   0.69086230 0.89989704 0.40985873
Xe   0.42679515 0.26699531 0.09123013
Xe   0.50204533 0.13819894 0.65569454
Xe   0.20718069 0.33927310 0.33983225
Xe   0.38872865 0.86902589 0.38755149
Xe   0.58081228 0.34936729 0.04777810
Xe   0.79258388 0.24087700 0.68316662
Xe   0.36102119 0.16864333 0.61712772
Xe   0.54820484 0.05307534 0.59636551
Xe   0.21711302 0.98201883 0.65644497
Xe   0.89064157 0.97474992 0.25311947
Xe   0.55207479 0.29537964 0.14660095
Xe   0.49407005 0.91600943 0.49743968
Xe   0.62580931 0.33272514 0.86634785
Xe   0.96656865 0.41021189 0.61728960
Xe   0.24078871 0.59153914 0.11643614
Xe   1.00004411 0.86340493 0.88862568
Xe   0.22494113 0.64947027 0.84377575
Xe   0.48188642 0.57713360 0.94120073
Xe   0.58493233 0.38103297 0.85757798
Xe   0.19109771 0.52516186 0.15485580
Xe   0.55673927 0.06193349 0.80952030
Xe   0.83110654 0.28051794 0.51396412
Xe   0.87438202 0.75251615 0.31964391
Xe   0.02623602 0.43825781 0.49957329
Xe   0.87575042 0.04889641 0.28212184
Xe   0.51138908 0.28928781 0.91855502
Xe   0.64390814 0.04342260 0.02909064
Xe   0.94258386 0.86549443 0.92939961
Xe   0.39929369 0.17227781 0.30592996
Xe   0.20035316 0.81393468 0.81559741
Xe   0.52864921 0.11372866 0.33646262
Xe   0.15759270 0.12316068 0.92335200
Xe   0.91976166 0.23587406 0.89982343
Xe   0.02753090 0.06755444 0.27155679
Xe   0.72747207 0.19535021 0.95332551
Xe   0.30762213 0.67114478 0.79983813
Xe   0.89218658 0.09020012 0.19409947
Xe   0.94067103 0.65894645 0.33132726
Xe   0.43374044 0.82525015 0.13243084
Xe   0.10634197 0.35578284 0.27454385
Xe   0.32907593 0.90414947 0.64980870
Xe   0.55016184 0.67747205 0.20454679
Xe   0.57273400 0.15248676 0.49077401
Xe   0.97753090 0.99935257 0.12338141
Xe   0.89015597 0.14145085 0.43493232
Xe   0.75244266 0.80665100 0.84159797
Xe   0.16344909 0.50098592 0.51893759
Xe   0.33677161 0.41389054 0.83990586
Xe   0.51717186 0.96040314 0.59445262
Xe   0.17354326 0.56384641 0.40170687
Xe   0.33232784 0.43666863 0.95027959
Xe   0.11328723 0.00594467 0.86737788
Xe   0.97816360 0.72682464 0.14124486
Xe   0.38928780 0.19617422 0.50001472
Xe   0.45276636 0.15869629 0.29295173
Xe   0.19383462 0.61982054 0.20725428
Xe   0.12285168 0.25962329 0.48805180
Xe   0.39348146 0.98736018 0.77260154
Xe   0.07139494 0.05470865 0.68200409
Xe   0.30813715 0.07410241 0.98803711
Xe   0.83196002 0.93070924 0.20479694
Xe   0.34243673 0.51668626 0.00778399
Xe   0.16009417 0.97714829 0.67960566
Xe   0.65937316 0.01508240 0.10773985
Xe   0.08118011 0.12071808 0.61756921
Xe   0.54326069 0.60999119 0.13622721
Xe   0.17951736 0.63605064 0.61896700
Xe   0.06942319 0.13209242 0.16780460
Xe   0.87929666 0.47586817 0.93120956
Xe   0.17782520 0.77473515 0.49630666
Xe   0.15482637 0.80723959 0.44742495
Xe   0.83275461 0.98560923 0.29090643
Xe   0.22514714 0.43663919 0.97114480
Xe   0.57689822 0.90788704 0.05289876
Xe   0.73922896 0.09876398 0.82764864
Xe   0.74798411 0.71440554 0.12174809
Xe   0.94638026 0.61458206 0.50978518
Xe   0.26110950 0.18042967 0.57198358
Xe   0.80472338 0.21185991 0.72701591
Xe   0.97422016 0.83521193 0.91724545
Xe   0.11695115 0.92907596 0.87794292
Xe   0.91280168 0.55957913 0.05841672
Xe   0.12260153 0.76805472 0.71455270
Xe   0.80066216 0.47583875 0.28246027
Xe   0.15151560 0.72682464 0.18934667
Xe   0.21761329 0.50263393 0.50625366
Xe   0.04068570 0.77814889 0.69643909
Xe   0.86780465 0.58800763 0.04389347
Xe   0.41608301 0.21377280 0.12182166
Xe   0.19174515 0.51047677 0.08088582
Xe   0.59512949 0.88195997 0.01464097
Xe   0.58191586 0.67814893 0.23793408
Xe   0.28497648 0.11958505 0.45238376
Xe   0.55776924 0.14199528 0.31364039
Xe   0.45128018 0.60844612 0.89867574
Xe   0.73147440 0.89758682 0.81670099
Xe   0.45103002 0.81138903 0.01088876
Xe   0.46726015 0.85631251 0.94658625
Xe   0.57414657 0.13684520 0.15999117
Xe   0.59477639 0.32763392 0.82976753
Xe   0.56542081 0.86728960 0.93153328
Xe   0.65132433 0.18708064 0.02282225
Xe   0.21093291 0.31708357 0.86294878
Xe   0.71630371 0.21206592 0.07828134
Xe   0.32729548 0.22739848 0.07633903
Xe   0.95863748 0.12214538 0.22976752
Xe   0.05420836 0.60158914 0.38376987
Xe   0.62452912 0.72445560 0.18332842
Xe   0.81200707 0.60953504 0.62897289
Xe   0.09368747 0.82522076 0.64495295
Xe   0.14571807 0.30928487 0.14278989
Xe   0.53290170 0.16649500 0.22982638
Xe   0.14414361 0.51970279 0.36808416
Xe   0.32809007 0.13788994 0.48356384
Xe   0.92366099 0.99358451 0.48761037
Xe   0.75401706 0.92049736 0.49298114
Xe   0.80988818 0.46183050 0.34963214
Xe   0.98919952 0.11119777 0.93911123
Xe   0.13187169 0.75331080 0.23116539
Xe   0.49040613 0.21468511 0.71861392
Xe   0.83559448 0.90734255 0.74317247
Xe   0.33711007 0.86294878 0.89646852
Xe   0.93378460 0.01024132 0.42460272
Xe   0.57149798 0.10125074 0.88843435
Xe   0.95250154 0.58519721 0.81643617
Xe   0.76852560 0.22558859 0.88472629
Xe   0.11005003 0.34792525 0.18578577
Xe   0.28943497 0.21318422 0.98334318
Xe   0.67017359 0.24432020 0.89908773
Xe   0.06512655 0.10172161 0.83953798
Xe   0.20613596 0.46636257 0.45941731
Xe   0.28914067 0.10553267 0.21640670
Xe   0.09480577 0.01006474 0.98594761
Xe   0.85675395 0.11016775 0.23600647
Xe   0.24539435 0.12279283 0.49317244
Xe   0.68690407 0.99626255 0.80525309
Xe   0.58371097 0.89998525 0.66714245
Xe   0.79165685 0.58281344 0.76365507
Xe   0.97838432 0.94543850 0.07688346
Xe   0.79145086 0.08852266 0.03000294
Xe   0.60216308 0.84011185 0.33644792
Xe   0.18858153 0.02788405 0.12046793
Xe   0.79421717 0.68505001 0.12839906
Xe   0.47981170 0.51025599 0.02341083
Xe   0.72067398 0.43613890 0.81547970
Xe   0.53419662 0.34663036 0.88740432
Xe   0.85965276 0.76181579 0.21191879
Xe   0.23246028 0.54181868 0.62430847
Xe   0.19655679 0.85881406 0.57064450
Xe   0.27221894 0.19930843 0.72085047
Xe   0.18178341 0.12517658 0.60982931
Xe   0.78334314 0.08491760 0.23382872
Xe   0.76384640 0.23865509 0.16386110
Xe   0.80701888 0.83934671 0.57972336
Xe   0.03897881 0.73631549 0.34033254
Xe   0.85881406 0.59764570 0.53897882
Xe   0.76767218 0.28356385 0.11503825
Xe   0.08968510 0.28419659 0.43097410
Xe   0.57975280 0.03144497 0.15060329
Xe   0.42202768 0.70089757 0.00765156
Xe   0.60273695 0.52267510 0.11442025
Xe   0.04763096 0.12090936 0.57217479
Xe   0.02170394 0.59768981 0.61362565
Xe   0.80213362 0.98481464 0.58899355
Xe   0.07295468 0.28200415 0.25298706
Xe   0.67922306 0.94558567 0.17931136
Xe   0.64892590 0.33334315 0.12292525
Xe   0.40291348 0.48763978 0.95504707
Xe   0.08986168 0.78956741 0.15398765
Xe   0.55470866 0.06258093 0.99445266
Xe   0.53228372 0.48324013 0.18085639
Xe   0.25710711 0.83275461 0.45570925
Xe   0.42401412 0.95061797 0.95559156
Xe   0.87015897 0.56228667 0.21213949
Xe   0.68844908 0.98044431 0.50797528
Xe   0.63641846 0.93874341 0.31930548
Xe   0.32291055 0.96712768 0.47485286
Xe   0.03259270 0.54211301 0.93243086
Xe   0.68300474 0.92291057 0.61796647
Xe   0.93893468 0.44763097 0.45869631
Xe   0.84014130 0.01814303 0.58135664
Xe   0.09061213 0.41531783 0.57641262
Xe   0.54582113 0.62480873 0.06942319
Xe   0.53356391 0.39046496 0.13738964
Xe   0.81247795 0.44969100 0.86706883
Xe   0.70348734 0.69562984 0.02058564
Xe   0.07851677 0.86316949 0.57944381
Xe   0.45572397 0.12786932 0.54589462
Xe   0.07489700 0.89205414 0.49301061
Xe   0.38041496 0.24089171 0.08017952
Xe   0.60744560 0.54983813 0.85392880
Xe   0.48356384 0.88170987 0.79184812
Xe   0.85203063 0.51840788 0.19602707
Xe   0.07229253 0.18755151 0.27023250
Xe   0.62363154 0.17015892 0.63744849
Xe   0.38977340 0.13241613 0.91600943
Xe   0.68178338 0.84056801 0.23843439
Xe   0.04693938 0.59309888 0.86233079
Xe   0.21874632 0.51509714 0.20026486
Xe   0.19720425 0.65285462 0.16692172
Xe   0.53791934 0.91774571 0.93942022
Xe   0.86993819 0.74432021 0.47479397
Xe   0.32246912 0.27062979 0.88337260
Xe   0.80180991 0.54732198 0.17321955
Xe   0.87795764 0.64115661 0.75132436
Xe   0.72492641 0.85088289 0.86584753
Xe   0.81768686 0.72781050 0.65178043
Xe   0.96824604 0.45504707 0.49936730
Xe   0.04870512 0.34398177 0.52397001
Xe   0.81727487 0.34530604 0.61998236
Xe   0.87991464 0.32085052 0.41949677
Xe   0.18273984 0.51464093 0.45691583
Xe   0.03837552 0.06884933 0.40088287
Xe   0.89108300 0.24286345 0.30781344
Xe   0.58159214 0.45130959 0.97747207
Xe   0.22844321 0.74520308 0.56642145
Xe   0.97763395 0.64729255 0.36100650
Xe   0.91324306 0.21099176 0.75200117
Xe   0.82064450 0.81843728 0.78001761
Xe   0.18040024 0.55949086 1.00013244
Xe   0.06000589 0.00161860 0.73312247
Xe   0.15366392 0.23287228 0.07636845
Xe   0.52177751 0.02257210 0.59102416
Xe   0.17317539 0.74561507 0.88026786
Xe   0.66818720 0.03059153 0.68313712
Xe   0.04245144 0.18691878 0.20542967
Xe   0.52536786 0.73443198 0.85693055
Xe   0.95631254 0.62494117 0.28221014
Xe   0.10033843 0.82402885 0.42713362
Xe   0.49505594 0.14771923 0.49220130
Xe   0.34836668 0.89901412 0.05459094
Xe   0.12878163 0.71599472 0.98115069
Xe   0.88351971 0.57012945 0.50176573
Xe   0.09049441 0.05806357 0.01130076
Xe   0.01062390 0.35139790 0.33132726
Xe   0.93040025 0.37875220 0.73859626
Xe   0.65712184 0.01531783 0.19380517
Xe   0.12507357 0.88209242 0.10326663
Xe   0.00507652 0.01778988 0.89277518
Xe   0.22962037 0.05562095 0.77859032
Xe   0.31898174 0.91356677 0.26325780
Xe   0.99276048 0.05136845 0.04515892
Xe   0.42502943 0.05985874 0.31549442
Xe   0.83947909 0.61378753 0.67591232
Xe   0.97426426 0.61624485 0.21228664
Xe   0.82335198 0.06328723 1.00101531
Xe   0.71528840 0.09198058 0.25395823
Xe   0.87816364 0.04103885 0.16528840
Xe   0.15051500 0.95650381 0.50147146
Xe   0.63672751 0.07299882 0.64521778
Xe   0.81699526 0.74327546 0.40447325
Xe   0.51805478 0.02127722 0.25088286
Xe   0.65791643 0.06514126 0.31233078
Xe   0.26611242 0.18251914 0.78410828
Xe   0.41478810 0.66743678 0.09989700
Xe   0.40163332 0.17545615 0.66961449
Xe   0.02527958 0.14097999 0.93766922
Xe   0.37054148 0.28890526 0.91140378
Xe   0.92277813 0.45238376 0.25478223
Xe   0.31084463 0.36286050 0.89992642
Xe   0.22292525 0.25754857 0.07270453
Xe   0.39449677 0.19951442 0.34504119
Xe   0.30423781 0.57064450 0.91268396
Xe   0.99164212 0.50810766 0.75348735
Xe   0.54479104 0.94442320 0.39542377
Xe   0.30261919 0.25145674 0.82683933
Xe   0.73037082 0.77316070 0.97164506
Xe   0.59265745 0.02010006 0.48406416
Xe   0.23705122 0.09866098 0.44454092
Xe   0.81483227 0.21108006 0.93243086
Xe   0.08643319 0.61908478 0.48231313
Xe   0.31546497 0.29833725 0.08655091
Xe   0.57276338 0.18248971 0.18850794
Xe   0.26946732 0.62104183 0.93762511
Xe   0.92283696 0.44049442 0.62286645
Xe   0.48955268 0.93902302 0.07489700
Xe   0.25731313 0.72527957 0.08271042
Xe   0.95928490 0.46890819 0.94736618
Xe   0.95311952 0.90222186 0.58440256
Xe   0.91614187 0.65150088 0.59764570
Xe   0.16094762 0.02092407 0.98123896
Xe   0.21200706 0.91197765 0.66162449
Xe   0.90035313 0.56009418 0.56185991
Xe   0.02385227 0.78525603 0.85904944
Xe   0.81375813 0.44343731 0.67427903
Xe   0.91010892 0.14429076 0.64905828
Xe   0.59106827 0.13294585 0.95412010
Xe   0.84573281 0.16818717 0.22594173
Xe   0.61892289 0.04858740 0.90673929
Xe   0.67491174 0.63478518 0.11366981
Xe   0.46399355 0.92170393 0.83009124
Xe   0.07566216 0.69511479 0.62548560
Xe   0.47686878 0.24888170 0.96047682
Xe   0.86055034 0.93949383 0.71021187
Xe   0.89354032 0.29922011 0.95560628
Xe   0.35629785 0.61138904 0.14986758
Xe   0.57733959 0.83802235 0.98218071
Xe   0.39096528 0.89086229 0.33921424
Xe   0.91580343 0.08828723 0.49726307
Xe   0.15960860 0.42427897 0.79526192
Xe   0.87004119 0.51230139 0.81839317
Xe   0.40800473 0.56106538 0.86280167
Xe   0.25581226 0.91341966 0.77817833
Xe   0.91381699 0.60120660 0.54115659
Xe   0.52319014 0.08716892 0.67379344
Xe   0.62057090 0.98752207 0.24308418
Xe   0.91269869 0.82123309 0.56932020
Xe   0.13581517 0.75740141 0.46458212
Xe   0.27379343 0.03465274 0.62991464
Xe   0.49074459 0.59380519 0.13301942
Xe   0.39451149 0.88769865 0.59838140
Xe   0.09766039 0.33371103 0.32935551
Xe   0.66547972 0.15829901 0.27569160
Xe   0.47183642 0.65918189 0.11961447
Xe   0.13085638 0.62039435 0.46876106
Xe   0.57575041 0.20637140 0.63007653
Xe   0.46419954 0.34579164 0.11721601
Xe   0.14480576 0.84718955 0.52826667
Xe   0.34688053 0.04623308 0.76574457
Xe   0.96263975 0.31665686 0.95258975
Xe   0.21409653 0.35681283 0.07707475
Xe   0.64735138 0.82679516 0.79808712
Xe   0.17786933 0.04980871 0.02781048
Xe   0.60760742 0.12576516 0.53593290
Xe   0.18989111 0.27975279 0.42145380
Xe   0.42533845 0.98165095 0.60884345
Xe   0.73964095 0.29674810 0.98693347
Xe   0.14907297 0.21976164 0.66990876
Xe   0.90606242 0.45076516 0.03633020
Xe   0.58407891 0.85788697 0.84640968
Xe   0.31180108 0.62138021 0.94602710
Xe   0.29537964 0.43706590 0.15570924
Xe   0.04558564 0.46517071 0.22071807
Xe   0.37108594 0.84763098 0.74833727
Xe   0.19499706 0.54527664 0.51162452
Xe   0.24973515 0.57248378 0.90716600
Xe   0.44717482 0.27323425 0.83883166
Xe   0.78250444 0.08484402 0.32760447
Xe   0.33382872 0.86294878 0.68048853
Xe   0.84983814 0.27348441 0.71297818
Xe   0.89289290 0.88488817 0.72925252
Xe   0.92326367 0.16887876 0.31315479
Xe   0.93031192 0.57788402 0.21022660
Xe   0.43610948 0.35347262 0.85818130
Xe   0.12202767 0.72526491 0.73410827
Xe   0.90952033 0.59826368 0.47580928
Xe   0.48363745 0.04723367 0.22120366
Xe   0.92766333 0.90395820 0.75347269
Xe   0.89415830 0.00551795 0.39140671
Xe   0.89028841 0.57033545 0.65303123
Xe   0.67900234 0.10222190 0.61075634
Xe   0.19234844 0.31424370 0.51904058
Xe   0.64857268 0.87597114 0.04757210
Xe   0.62625074 0.56374341 0.09570336
Xe   0.38999411 0.19326074 0.18260741
Xe   0.82404357 0.15567981 0.53555036
Xe   0.38774279 0.13191584 0.58263683
Xe   0.83915538 0.05868158 0.91068274
Xe   0.69592404 0.00700412 0.45887285
Xe   0.15314892 0.12355798 0.16312538
Xe   0.67783993 0.58531487 0.80965275
Xe   0.29411420 0.44983813 0.98040020
Xe   0.42198351 0.78602117 0.15250148
Xe   0.62797230 0.96446437 0.44658625
Xe   0.87989998 0.67089468 0.06087404
Xe   0.60768098 0.80769569 0.42461744
Xe   0.09849911 0.17560330 0.43875811
Xe   0.68944967 0.13026780 0.23878753
Xe   0.87291056 0.01193349 0.03889052
Xe   0.06041789 0.01959977 0.95459098
Xe   0.60757798 0.70448792 0.11756916
Xe   0.23482931 0.48394644 0.93939084
Xe   0.47258684 0.44997057 0.98815477
Xe   0.71028548 0.17060035 0.60851973
Xe   0.20279576 0.34476164 0.15538552
Xe   0.49970570 0.20116244 0.39087698
Xe   0.50572395 0.59327549 0.00529723
Xe   0.26097706 0.60063273 0.82563275
Xe   0.97863454 0.07216009 0.72104180
Xe   0.46171278 0.22776634 0.09986757
Xe   0.28762510 0.39058271 0.81552386
Xe   0.59889644 0.80410534 0.86383170
Xe   0.20244262 0.65188342 0.00482637
Xe   0.04449676 0.09017069 0.46380225
Xe   0.01409653 0.56668633 0.44820482
Xe   0.89664513 0.14565921 0.33624190
Xe   0.38606533 0.47389644 0.91474396
Xe   0.17966451 0.40103000 0.56873161
Xe   0.87127727 0.29480577 0.46814305
Xe   0.18106240 0.93733078 0.02728075
Xe   0.16559741 0.95341378 0.91049147
Xe   0.53633022 0.42211595 0.04086227
Xe   0.67132139 0.47522074 0.04629194
Xe   0.07733961 0.08699235 0.26815775
Xe   0.32526487 0.98946446 0.25384048
Xe   0.04214244 0.72823721 0.40721011
Xe   0.86156559 0.73140085 0.40080932
Xe   0.53952324 0.86222780 0.70953506
Xe   0.23303413 0.86656857 0.78200412
Xe   0.06681871 0.70403183 0.85526782
Xe   0.63874340 0.91250736 0.39699823
Xe   0.58293116 0.17922308 0.67014420
Xe   0.31680402 0.61500883 0.10567982
Xe   0.82695705 0.13248970 0.59920543
Xe   0.37439671 0.70488524 0.15550324
Xe   0.23095939 0.26957032 0.01527369
Xe   0.27751619 0.86440551 0.18493231
Xe   0.13374044 0.14087699 0.60027957
Xe   0.55375218 0.41531783 0.82245439
Xe   0.70978516 0.45251620 0.02120365
Xe   0.23354915 0.33369628 0.18497646
Xe   0.98836076 0.55007356 0.27632430
Xe   0.21846674 0.86656857 0.45361978
Xe   0.05047087 0.60557681 0.55475283
Xe   0.25672457 0.82277811 0.16447911
Xe   0.96817243 0.92638320 0.48908180
Xe   0.27588287 0.71284580 0.89829314
Xe   0.45192760 0.51508242 0.83881694
Xe   0.35785756 0.67720717 0.06756916
Xe   0.46628898 0.24779283 0.13964096
Xe   0.64802825 0.20537080 0.53190112
Xe   0.58518249 0.20036785 0.72533840
Xe   0.57466161 0.47407296 0.87241030
Xe   0.14618894 0.56912893 0.27613303
Xe   0.66804004 0.99838138 0.74008244
Xe   0.42427897 0.16069746 0.22792819
Xe   0.22218953 0.12941436 0.89907300
Xe   0.48285756 0.14867570 0.81802529
Xe   0.39936730 0.73955268 0.86837846
Xe   0.50491464 0.80523837 0.80824018
Xe   0.28232786 0.56041789 0.01553855
Xe   0.24615951 0.67882580 0.23493230
Xe   0.76737791 0.71640670 0.84539437
Xe   0.69439381 0.46718660 0.88085639
Xe   0.52008539 0.48977339 0.08747793
Xe   0.08652148 0.67142439 0.66547972
Xe   0.28322542 0.38731608 0.04273102
Xe   0.54755741 0.09877869 0.51415539
Xe   0.14120071 0.06468511 0.10232490
Xe   0.55946147 0.00931430 0.33319598
Xe   0.80684227 0.70862275 0.55116248
Xe   0.08129782 0.22586817 0.48541787
Xe   0.21133021 0.43532959 0.81795174
Xe   0.98522663 0.42451444 0.52945846
Xe   0.06319894 0.18170983 0.71611243
Xe   0.26802531 0.53861094 0.07580930
Xe   0.88962626 0.10672455 0.68641847
Xe   0.75675398 0.25843143 0.94873452
Xe   0.46422896 0.11506769 0.62838435
Xe   0.53866982 0.40662155 0.98313719
Xe   0.01337552 0.35292819 0.45943201
Xe   0.16506769 0.40448794 0.22975281
Xe   0.71720129 0.80529726 0.16418482
Xe   0.01140377 0.97994411 0.49312833
Xe   0.85725427 0.56412596 0.26344907
Xe   0.10063273 0.84312832 0.12179224
Xe   0.79206884 0.04293702 0.39355505
Xe   0.01615656 0.50000000 0.58608007
Xe   0.24412890 0.30726898 0.06693643
Xe   1.00354612 0.97424954 0.56558269
Xe   0.04364332 0.18934667 0.45256034
Xe   0.05201589 0.68660975 0.81453794
Xe   0.55357563 0.48532963 0.95953500
Xe   0.84012657 0.38568276 0.13769865
Xe   0.52629489 0.95519423 0.89871985
Xe   0.66015303 0.14286345 0.51494998
Xe   0.80098593 0.01522955 0.67989999
Xe   0.40052971 0.57470572 1.00223660
Xe   0.35203061 0.37001178 0.16059446
Xe   0.63112122 0.73972923 0.94018543
Xe   0.35832843 0.15207475 0.67249852
Xe   0.15859330 0.29667452 0.78029722
Xe   0.99415839 0.44495293 0.22878164
Xe   0.76895231 0.55541492 0.94196588
Xe   0.38909653 0.91269869 0.24356975
Xe   0.83047378 0.72448498 0.82190990
Xe   0.40907890 0.67068869 0.14464390
Xe   1.00288403 0.65030903 0.68312240
Xe   0.33771336 0.15944675 0.31702474
Xe   0.01477340 0.94611531 0.52922308
Xe   0.87758976 0.41031489 0.94998527
Xe   0.15042672 0.04407004 0.35429662
Xe   0.03487345 0.09870513 0.06199235
Xe   0.52605945 0.36727485 0.07989994
Xe   0.68977338 0.58387285 0.86250740
Xe   0.42026195 0.77497059 0.99402595
Xe   0.56091815 0.84274572 0.44665980
Xe   0.70912302 0.11005003 0.86383170
Xe   0.67180693 0.20937316 0.58328426
Xe   0.45110360 0.63734549 0.07975280
Xe   0.05058858 0.12507357 0.71350795
Xe   0.60860801 0.67964977 0.90644497
Xe   0.96711302 0.47572103 0.61686289
Xe   0.12650089 0.41456738 0.64399648
Xe   0.10947616 0.99043554 0.23384345
Xe   0.40719542 0.16767217 0.10076516
Xe   0.19512948 0.72807533 0.02138022
Xe   0.93407887 0.41559741 0.41213951
Xe   0.11305179 0.75907892 0.28434372
Xe   0.18178341 0.84842557 0.28078282
Xe   0.55626839 0.07942908 0.94071513
Xe   0.16837846 0.85011768 0.46954092
Xe   0.08238670 0.91211009 0.43379933
Xe   0.96692169 0.16062391 0.44320190
Xe   0.74916124 0.53187168 0.16958505
Xe   0.51892287 0.93575639 0.71946734
Xe   0.82040906 0.86909944 0.90008825
Xe   0.66212481 0.05210418 0.44819012
Xe   0.42344028 0.61593586 0.85295761
Xe   0.41200706 0.82430845 0.28942025
Xe   0.99034727 0.51093292 0.93831670
Xe   0.21677458 0.24713066 0.87775165
Xe   0.56493527 0.75445849 0.83376986
Xe   0.17246909 0.18731606 0.78101826
Xe   0.68338728 0.11291936 0.56250739
Xe   0.69660091 0.27638319 0.92788404
Xe   0.17271924 0.68861097 0.38394645
Xe   0.01778988 0.19814597 0.94174516
Xe   0.10211889 0.16753973 0.63883168
Xe   0.63655090 0.53145969 0.14613007
Xe   0.51568574 0.11503825 0.54958797
Xe   0.15267806 0.10709241 0.96876103
Xe   0.91612715 0.55019128 0.11102119
Xe   0.38440260 0.94389355 0.36196294
Xe   0.09180400 0.73880225 0.08940554
Xe   0.57260156 0.51572984 0.82623607
Xe   0.18123898 0.83534431 0.17223367
Xe   0.91836375 0.36158034 0.83971459
Xe   0.61439085 0.34239256 0.91830492
Xe   0.87227780 0.18837552 0.59268689
Xe   0.68625665 0.55954975 1.00135374
Xe   0.28594762 0.50160390 0.01945262
Xe   0.20899059 0.96146268 0.86147738
Xe   0.60401708 0.08972926 0.94710124
Xe   0.66659796 0.44791055 0.92126256
Xe   0.37882578 0.79040611 0.17108594
Xe   0.46634787 0.08412302 0.66440552
Xe   0.13630076 0.87632430 0.47951740
Xe   0.36809888 0.97987056 0.16648029
Xe   0.82423484 0.59926432 0.50166273
Xe   0.92192465 0.36206594 0.02539729
Xe   0.42110065 0.20563568 0.39443791
Xe   0.78839022 0.82246912 0.63065040
Xe   0.03265156 0.28365216 0.64599764
Xe   0.71197766 0.93905240 0.00601825
Xe   0.96215421 0.06327251 0.33557975
Xe   0.64854330 0.01948205 0.49929368
Xe   0.52554446 0.98235732 0.47286642
Xe   0.25359035 0.82183641 0.11225721
Xe   0.86505300 0.34991172 0.05270747
Xe   0.14989701 0.38106239 0.31889349
Xe   0.80401707 0.11645085 0.06911419
Xe   0.26396409 0.90957916 0.22373456
Xe   0.54607123 0.15322249 0.59065628
Xe   0.14259858 0.25273693 0.13850795
Xe   0.71433198 0.79583579 0.89200997
Xe   0.47748676 0.43559447 0.80791640
Xe   0.10872572 0.12819305 0.74605650
Xe   0.09189229 0.91505301 0.37501472
Xe   0.72010005 0.79467332 0.11597999
Xe   0.70765156 0.24152443 0.19923484
Xe   0.73253387 0.16056503 0.26399353
Xe   0.41602415 0.36618599 0.95133901
Xe   0.31383166 0.83544731 0.62573576
Xe   0.65918189 0.95285457 0.55554742
Xe   0.42005593 0.65821069 0.92589760
Xe   0.80550325 0.74150974 0.51765746
Xe   0.93559450 0.91942322 0.37753090
Xe   0.58884639 0.87424958 0.79833728
Xe   0.47954679 0.72126251 0.07600059
Xe   0.24423189 0.54885226 0.02879635
Xe   0.26411125 0.38543260 0.38241613
Xe   0.00431136 0.74278986 0.18059152
Xe   0.50565034 0.52248383 0.15439965
Xe   0.85070628 0.61063862 0.72080636
Xe   0.23775752 0.56480283 0.15498823
Xe   0.72913474 0.11943790 0.60098588
Xe   0.23741907 0.10557681 0.23543261
Xe   0.63505006 0.37720719 0.03262213
Xe   0.80554736 0.05894644 0.71811360
Xe   0.90223664 0.24039140 0.12533844
Xe   0.60077983 0.41293406 0.95300174
Xe   0.49371693 0.85679811 0.42670691
Xe   0.27369040 0.21559742 0.41005003
Xe   0.01490583 0.20142731 0.88987643
Xe   0.14498234 0.09898470 0.26553854
Xe   0.87174809 0.10746027 0.30226603
Xe   0.51505297 0.52467632 0.90623897
Xe   0.72783995 0.05701884 0.54384929
Xe   0.98866987 0.67164510 0.95119184
Xe   0.60050035 0.41446438 0.81484693
Xe   0.15710713 0.13474102 0.80578285
Xe   0.61837846 0.13378458 0.86396408
Xe   0.10194232 0.15434079 0.69408476
Xe   0.72691292 0.99081814 0.37447026
Xe   0.99430543 0.13450558 0.53229839
Xe   0.66915834 0.47107121 0.97913480
Xe   0.33737493 0.95991760 0.31049147
Xe   0.90419370 0.95130962 0.52717775
Xe   0.30554739 0.57374930 0.81611246
Xe   0.00076516 0.73416716 0.43241611
Xe   0.56212479 0.94239259 0.32073280
Xe   0.96358156 0.24096526 0.88610953
Xe   0.66793704 0.97795761 0.28708065
Xe   0.90860802 0.75267804 0.19536492
Xe   0.09065627 0.65969688 0.42071807
Xe   0.69072986 0.63247502 0.15725428
Xe   0.91206592 0.83151853 0.70772517
Xe   0.78624189 0.26250735 0.90506178
Xe   0.78891999 0.13221012 0.41561213
Xe   0.85620952 0.01655385 0.23557976
Xe   0.19487935 0.89679223 0.06228664
Xe   0.14312832 0.39876398 0.09511478
Xe   0.85316360 0.01237493 0.87682462
Xe   0.18656562 0.48092994 0.01639199
Xe   0.65164804 0.56556797 0.88132727
Xe   0.45500296 0.01442025 0.73994994
Xe   0.81305182 0.83446145 0.08356386
Xe   0.11455268 0.56081516 0.59259856
Xe   0.30631253 0.89331961 0.83647734
Xe   0.97931141 0.56109476 0.47683930
Xe   0.43272516 0.91490579 0.46811360
Xe   0.96225715 0.78310776 0.65445852
Xe   0.87414658 0.51421422 0.76331669
Xe   0.62505889 0.53563863 0.97417605
Xe   0.57667750 0.20800471 0.27647144
Xe   0.92438197 0.47569159 0.49278989
Xe   0.16236022 0.81540614 0.59842551
Xe   0.08635962 0.22832549 0.76550913
Xe   0.15204532 0.74178928 0.53550619
Xe   0.11156563 0.09468805 0.19846968
Xe   0.92360216 0.09851383 0.63378459
Xe   0.26745147 0.83221012 0.40978518
Xe   0.35753384 0.23488818 0.87113011
Xe   0.27295467 0.33316657 0.08406416
Xe   0.58331370 0.80163330 0.50481164
Xe   0.86314011 0.60366392 0.35904944
Xe   0.17135081 0.17051207 0.63368154
Xe   0.06465568 0.06671572 0.74949974
Xe   0.59777808 0.46350795 0.83947909
Xe   0.39586523 0.52062976 0.99524724
Xe   0.10167746 0.09532078 0.15503238
Xe   0.08766922 0.76726019 0.21088876
Xe   0.12957622 0.06062390 0.04970571
Xe   0.40723956 0.94473225 0.31840789
Xe   0.64342260 0.63038552 0.96550912
Xe   0.67523545 0.55700415 0.12904650
Xe   0.52583873 0.15550324 0.08659506
Xe   0.51908475 0.95757806 0.18993525
Xe   0.31823131 0.34720424 0.13793407
Xe   0.10713656 0.45592996 0.37292525
Xe   0.82004118 0.49560034 0.47863451
Xe   0.54811656 0.62682462 0.18946441
Xe   0.06648029 0.58404946 0.23460861
Xe   0.46202180 0.07575044 0.29339316
Xe   0.58894938 0.37358740 0.98749268
Xe   0.12364626 0.56909949 0.43683049
Xe   0.22273396 0.38248971 0.95723957
Xe   0.78278404 0.19521777 0.25965273
Xe   0.69788116 0.94882286 0.89615953
Xe   0.71062386 0.20275162 0.81489116
Xe   0.09249558 0.39701298 0.90684229
Xe   0.43335786 0.46433195 0.89083284
Xe   0.08357857 0.38728663 0.20784286
Xe   0.22276339 0.78316659 0.34501177
Xe   0.07845791 0.22912008 0.61778986
Xe   0.83079749 0.21439081 0.22964980
Xe   0.10008829 0.81639200 0.85991758
Xe   0.41263977 0.96346378 0.55510592
Xe   0.58999413 0.17825192 0.53868455
Xe   0.10167746 0.12271925 0.23964095
Xe   0.74109775 0.10794585 0.19863154
Xe   0.83054739 0.36477342 0.45410535
Xe   0.01152148 0.34786642 0.82813418
Xe   0.08978812 0.69664514 0.30675396
Xe   0.37792820 0.70297229 0.89411420
Xe   0.98868454 0.63349026 0.62938493
Xe   0.17722189 0.91661268 0.46948206
Xe   0.13376985 0.44583580 0.20032373
Xe   0.86595052 0.95108891 0.63956738
Xe   0.92417598 0.90562099 0.50697470
Xe   0.93044442 0.06996763 0.58479989
Xe   0.66829020 0.67507356 0.89621842
Xe   0.93384343 0.77854621 0.55300176
Xe   0.42669216 0.25613597 0.03406416
Xe   0.02856092 0.26252207 0.39639494
Xe   0.80286932 0.38175398 0.06231607
Xe   0.19183344 0.60172164 0.70757800
Xe   0.85754853 0.72583872 0.18197469
Xe   0.34988227 0.37647143 0.86984992
Xe   0.02508829 0.51387584 0.87669224
Xe   0.34919071 0.66256624 0.82931137
Xe   0.58869922 0.45481166 0.10644497
Xe   0.01496468 0.38512361 0.66655385
Xe   0.08915538 0.92763388 0.03232784
Xe   0.56567103 0.25163332 1.00721014
Xe   0.94796944 0.67966449 0.44520307
Xe   0.82336670 0.05113302 0.62789881
Xe   0.86308122 0.45999116 0.66671574
Xe   0.48169512 0.27073279 0.89080346
Xe   0.93613893 0.87761921 0.53837556
Xe   0.42591229 0.55787224 0.08262213
Xe   0.17967923 0.27586815 0.00261919
Xe   0.04741024 0.75382578 0.58269566
Xe   0.03023838 0.75420839 0.53226900
Xe   0.25609180 0.64265746 0.12645674
Xe   0.09874927 0.61238962 0.58850795
Xe   0.01798117 0.11434668 0.13566804
Xe   0.19414362 0.87307239 0.33949384
Xe   0.81756920 0.08505003 0.56278694
Xe   0.58997941 0.17814893 0.94520307
Xe   0.92161566 0.04869041 0.96397883
Xe   0.52920836 0.58241618 0.09071513
Xe   0.70251620 0.40718073 1.00051510
Xe   0.97519135 0.46612713 0.72810477
Xe   0.74223077 0.14670394 0.91458207
Xe   0.99927902 0.22176281 0.51436144
Xe   0.75077987 0.59346676 0.17314598
Xe   0.93346089 0.71572983 0.96678936
Xe   0.82603002 0.30512068 0.21346380
Xe   0.08669806 0.74849916 0.43906713
Xe   0.35537079 0.72121835 0.09201001
Xe   0.12770748 0.99580640 0.90902001
Xe   0.68546206 0.29206887 0.04299588
Xe   0.91611242 0.18087110 0.97507358
Xe   0.10734256 0.77046794 0.33541790
Xe   0.43069455 0.03490289 0.50775456
Xe   0.90644497 0.26305181 0.92782521
Xe   0.88774282 0.88834614 0.23151855
Xe   0.94692463 0.01686286 0.62498528
Xe   0.23092997 0.03471160 0.57411712
Xe   0.48766920 0.08316657 0.99312824
Xe   0.10367864 0.63771337 0.22580929
Xe   0.72710419 0.84430552 0.81824607
Xe   0.34857267 0.56827545 0.12814891
Xe   0.74037671 0.71002060 0.98610950
Xe   0.66274279 0.88365215 0.45713654
Xe   0.73059154 0.61983520 0.93909651
Xe   0.14874926 0.97214544 0.45872572
Xe   0.30025017 0.10169217 0.56520009
Xe   0.62576514 0.43468219 0.92950267
Xe   0.84876400 0.26870218 0.84785169
Xe   0.42650089 0.83749264 0.54801357
Xe   0.97555923 0.56238967 0.22051206
Xe   0.91778988 0.72770751 0.47254264
Xe   0.17164509 0.19508535 0.71194822
Xe   0.51614183 0.72120368 0.14841084
Xe   0.92864919 0.60269278 0.05985874
Xe   0.73815483 0.46065333 0.86269867
Xe   0.74389350 0.96062386 0.04034726
Xe   0.08326957 0.15550324 0.87480873
Xe   0.16193350 0.08696292 0.67514712
Xe   0.31336081 0.75566512 0.03624191
Xe   0.83896410 0.20718069 0.69880813
Xe   0.62292522 0.13479988 0.73413771
Xe   0.80997646 0.69168627 0.43067980
Xe   0.29221600 0.14368747 0.78665388
Xe   0.21184520 0.78403473 0.69482052
Xe   0.42146850 0.84249562 0.96758395
Xe   0.51347852 0.02836963 0.98346084
Xe   0.96105069 0.44964686 0.78409356
Xe   0.99408478 0.14957328 0.57856095
Xe   0.59685111 0.23198940 0.96801066
Xe   0.40625367 0.78351974 0.09738082
Xe   0.79227483 0.25051501 0.50117719
Xe   0.89127427 0.71057975 0.61701000
Xe   0.61942321 0.06202178 0.46266922
Xe   0.06693643 0.30779868 0.40463510
Xe   0.48610947 0.84611535 0.82641256
Xe   0.19256915 0.90300179 0.36696586
Xe   0.64877868 0.83085638 0.86736315
Xe   0.80996174 0.78154796 0.65370804
Xe   0.46227193 0.09755739 0.40232489
Xe   0.24075927 0.51642144 0.81278694
Xe   0.93766922 0.05360506 0.53040028
Xe   0.52392584 0.15135375 0.18197469
Xe   0.66508245 0.10110359 0.82707477
Xe   0.15712185 0.71801060 0.43128312
Xe   0.48809597 0.18095939 0.16889347
Xe   0.42438200 0.60347265 0.94735146
Xe   0.29798409 0.52455854 0.91339028
Xe   0.93771338 0.38574162 0.97388166
Xe   0.51022661 0.07554444 0.22886993
Xe   0.43210712 0.13022366 0.89055330
Xe   0.39577693 0.14315774 0.62791348
Xe   0.07279282 0.04068570 0.84892589
Xe   0.26964393 0.94543850 0.02086521
Xe   0.26231608 0.07775162 0.57733959
Xe   0.88847852 0.77608889 0.10313419
Xe   0.50191289 0.17604473 0.55907887
Xe   0.16044733 0.10547381 0.07207181
Xe   0.08560918 0.30170688 0.08665391
Xe   0.28906712 0.36486167 0.99000883
Xe   0.16421424 0.07647146 0.38159212
Xe   0.45668039 0.60366392 0.99573278
Xe   0.01483225 0.69377571 0.76547968
Xe   0.53091526 0.50158918 0.86255151
Xe   0.88025308 0.27168924 0.60381109
Xe   0.46714243 0.51653916 0.14412890
Xe   0.91881990 0.59190702 0.69364333
Xe   0.64045030 0.08106239 0.58635962
Xe   0.04673338 0.33042967 0.60208946
Xe   0.85370809 0.46781930 0.83484405
Xe   0.98153329 0.07726604 0.23687463
Xe   0.79415834 0.25662154 0.83925837
Xe   0.75072104 0.03972925 0.83915538
Xe   0.97077692 0.38415244 0.02404355
Xe   0.61368454 0.91263980 0.22386698
Xe   0.84206891 0.96982044 0.03193055
Xe   0.84974986 0.32561800 0.30495882
Xe   0.44549733 0.83878756 0.91571510
Xe   0.27848735 0.80052972 0.02158623
Xe   0.87807536 0.15178046 0.38872865
Xe   0.11650971 0.77188051 0.86528844
Xe   0.91802531 0.96050620 0.60472339
Xe   0.92427897 0.26895234 0.28041494
Xe   0.02842849 0.20834315 0.41021189
Xe   0.66462624 0.14087699 0.66990876
Xe   0.93588877 0.97182167 0.55657744
Xe   0.67447031 0.15332548 0.36305180
Xe   0.97239554 0.84454089 0.34693936
Xe   0.61483228 0.81180102 0.96514130
Xe   0.78833139 0.62651557 0.80909359
Xe   0.53375512 0.89277518 0.47386697
Xe   0.97686875 0.20420836 0.55615067
Xe   0.57541203 0.65323722 0.88194525
Xe   0.65317833 0.87251329 0.80014712
Xe   0.78088582 0.52909064 0.07697175
Xe   0.39097998 0.98844916 0.51047677
Xe   0.65716600 0.94991171 0.36074162
Xe   0.49649796 0.78262216 0.04839612
Xe   0.93918484 0.36436138 0.52666277
Xe   0.88602120 0.49677753 0.04324603
Xe   0.14376104 0.48169512 0.61274278
Xe   0.89857274 0.74564451 0.37613302
Xe   0.57523543 0.01933490 0.56439084
Xe   0.26224250 0.15292819 0.68185699
Xe   0.22522071 0.45716599 0.01406710
Xe   0.09321660 0.45326665 0.50113302
Xe   0.92697179 0.91130078 0.70439965
Xe   0.01780459 0.03824309 0.46156564
Xe   0.02089464 0.75604767 0.05310477
Xe   0.86472923 0.89159799 0.92491168
Xe   0.74718952 0.81664217 0.96899641
Xe   0.16060919 0.51801056 0.26971748
Xe   0.06431724 0.15091230 0.96331674
Xe   0.32282224 0.88012064 0.60353148
Xe   0.00824014 0.15912302 0.80434078
Xe   0.64564449 0.43662450 0.83756626
Xe   0.27182165 0.95201588 0.34557092
Xe   0.85809302 0.78137141 0.66758388
Xe   0.92720717 0.46403766 0.75815183
Xe   0.62806064 0.06427310 0.34362862
Xe   0.40051502 0.17457329 0.94348150
Xe   0.40548852 0.70826954 0.10173631
Xe   0.15153033 0.90846086 0.43488818
Xe   0.88665390 0.38460860 0.04602708
Xe   0.67917895 0.90038258 0.93999410
Xe   0.87945855 0.47305766 0.61980581
Xe   0.73506480 0.90529722 0.76886404
Xe   0.64034730 0.54558563 0.21059448
Xe   0.38337258 0.24296644 0.01970277
Xe   0.14084755 0.89096528 0.89271629
Xe   0.13116539 0.09087699 0.02160094
Xe   0.39386404 1.00448799 0.84746915
Xe   0.46124193 0.86439079 0.61050624
Xe   0.12944379 0.67601532 0.33187172
Xe   0.47042379 0.92164505 0.72525012
Xe   0.52358741 0.06171277 0.54499704
Xe   0.12754562 0.18044437 0.55865216
Xe   0.31287524 0.73958212 0.09089170
Xe   0.72644204 0.25991759 0.15354621
Xe   0.18095939 0.42208651 0.36133018
Xe   0.61939377 0.49006769 0.88753682
Xe   0.01798117 0.17901708 0.70754856
Xe   0.15779871 0.36696586 0.02944379
Xe   0.97057092 0.61302239 0.72527957
Xe   0.89333433 0.39383459 0.88148910
Xe   0.83443201 0.69604182 0.07729547
Xe   0.38340199 0.41202179 0.88176870
Xe   0.88273990 0.17071807 0.67682463
Xe   0.88953793 0.10213361 0.57738376
Xe   0.32544145 0.11690701 0.39585051
Xe   0.58266628 0.98828727 0.28325486
Xe   0.05819600 0.79336375 0.18393172
Xe   0.68098879 0.45603296 0.80688637
Xe   0.85100061 0.35361978 0.81447911
Xe   0.32892880 0.04050912 0.04461448
Xe   0.99565923 0.38378459 0.92489702
Xe   0.82480872 0.54359919 0.75130957
Xe   0.20751913 0.00416421 0.51940846
Xe   0.48535904 0.76381695 -.00251619
Xe   0.21056505 0.50356090 0.78878754
Xe   0.31843734 0.12308711 0.82071811
Xe   0.24830782 0.95188349 0.81743675
Xe   0.16007945 0.30828428 0.60554737
Xe   0.99817538 0.58875811 0.53131258
Xe   0.34755740 0.16808417 0.26937905
Xe   0.94096529 0.55116248 0.15600353
Xe   0.89074457 0.98628604 0.95014715
Xe   0.06233079 0.91711301 0.72210127
Xe   0.78175396 0.68315184 0.93000293
Xe   0.27417597 0.61130077 0.88696295
Xe   0.70267808 0.21162449 0.32360214
Xe   0.82154208 0.98914069 0.18912596
Xe   0.42374927 0.45816657 0.17753090
Xe   0.46974692 0.35445851 0.98150390
Xe   0.37966451 0.08565333 0.53849328
Xe   0.60743082 0.30306065 0.91110945
Xe   0.48734549 0.50448793 0.97675103
Xe   0.47666276 0.07632431 0.35206005
Xe   0.27039436 0.15032372 0.82538259
Xe   0.72186577 0.90328139 0.32118893
Xe   0.08041495 0.87688345 0.98260742
Xe   0.91071218 0.12245438 0.79354036
Xe   0.12423484 0.31361094 0.22040907
Xe   0.34457034 0.54543853 0.92392588
Xe   0.59764570 0.67438203 0.17145380
Xe   0.48866978 0.12311654 0.36861390
Xe   0.42664805 0.37373456 0.14205416
Xe   0.17834020 0.15840201 0.91178638
Xe   0.17480871 0.54562980 0.23037080
Xe   0.20924073 0.04243673 0.27507359
Xe   0.42703062 0.69917595 0.18850794
Xe   0.43874338 0.01798117 0.34265745
Xe   0.45535609 0.13853738 0.20303120
Xe   0.43254855 0.59510010 0.04532078
Xe   0.14292231 0.74253976 0.83753675
Xe   0.06575927 0.92610359 0.78366685
Xe   0.23994996 0.69523251 0.80213362
Xe   0.19760153 0.21032961 0.26274282
Xe   0.58911121 0.18318129 0.82474983
Xe   0.94217187 0.52669215 0.34093586
Xe   0.57611829 0.77630961 0.90051502
Xe   0.61394936 0.09671866 0.41889349
Xe   0.34801352 0.95985878 0.90697473
Xe   0.63218069 0.29227489 0.01642143
Xe   0.07884049 0.12673631 0.43909654
Xe   0.58013535 0.94980878 0.02947322
Xe   0.73067987 0.56336081 0.89512950
Xe   0.66871691 0.60151565 0.06533255
Xe   0.92797232 0.00684226 0.02558858
Xe   0.54908770 0.03502060 0.50691587
Xe   0.51152152 0.03811065 0.72196877
Xe   0.64017069 0.84215719 0.92992944
Xe   0.16801059 0.67514712 0.96082985
Xe   0.52775162 0.91237497 0.31702474
Xe   0.68861097 0.02616245 0.83477044
Xe   0.02725132 0.94408482 0.11677457
Xe   0.03419659 0.55851972 0.27302825
Xe   0.55020601 0.12220424 0.45294291
Xe   0.85771042 0.42257211 0.40481165
Xe   0.29785168 0.97308707 0.82608885
Xe   0.37577987 0.38378459 0.04542378
Xe   0.68421131 0.22545615 0.15931430
Xe   0.25488523 0.02335197 0.69047970
Xe   0.90506178 0.43363744 0.68699235
Xe   0.92841381 0.42981166 0.73100352
Xe   0.10437022 0.52177751 0.96961445
Xe   0.88015008 0.33212182 0.57449973
Xe   0.29187760 0.03110654 0.54651266
Xe   0.15435550 0.30145675 0.86031491
Xe   0.24910243 0.01521483 0.53444672
Xe   0.16764273 0.91571510 0.19386405
Xe   0.19615951 0.28861097 0.05088287
Xe   0.87014419 0.77579457 0.42401412
Xe   0.87773693 0.87388170 0.49886698
Xe   0.85595942 0.72210127 0.30173633
Xe   0.13934667 0.12669216 0.64614481
Xe   0.22439671 0.94499707 0.98209238
Xe   0.58880222 0.90464979 0.92383754
Xe   0.20754856 0.18725722 0.37338141
Xe   0.46236023 0.95462036 0.48543262
Xe   0.49367273 0.96612710 0.53719836
Xe   0.89833724 0.75467920 0.64099473
Xe   0.84442323 0.14849912 0.69683635
Xe   0.86057979 0.01110948 0.08978812
Xe   0.44683638 0.76677459 0.83866978
Xe   0.24326074 0.24877869 0.15779871
Xe   0.57441139 0.98921424 0.85812247
Xe   0.57241029 0.88313717 0.56049144
Xe   0.07909064 0.17479399 0.77036494
Xe   0.11168335 0.56577402 0.37866393
Xe   0.60089761 0.09717481 0.25225133
Xe   0.82427901 0.08031195 0.35746026
Xe   0.81018251 0.00737198 0.06662743
Xe   0.84587991 0.71386111 0.44256917
Xe   0.07669217 0.42636845 0.84398174
Xe   0.16687757 0.63853741 0.67904651
Xe   0.16074161 0.73020893 0.34994113
Xe   0.22614774 0.34933785 0.38042966
Xe   0.47626546 0.05863743 0.12345498
Xe   0.18276927 0.95525306 0.42664805
Xe   0.38677162 0.27638319 0.85822546
Xe   0.31606826 0.71386111 0.14401118
Xe   0.07580930 0.29801354 0.36141849
Xe   0.17223367 0.45100060 0.86521482
Xe   0.42207181 0.04533549 0.45804885
Xe   0.06402295 0.01942319 0.31517071
Xe   0.12402884 0.67321956 0.45991760
Xe   0.16185991 0.93681580 0.86271340
Xe   0.04256916 0.00960859 0.68711007
Xe   0.71427310 0.97653031 0.21452326
Xe   0.40765157 0.12801647 0.28899351
Xe   0.91477340 0.33546203 0.66645086
Xe   0.86861390 0.17142436 0.78123897
Xe   0.23079753 0.56411129 0.97261626
Xe   0.38243085 0.45693055 0.14292231
Xe   0.34667450 0.14917599 0.01879046
Xe   0.92080635 0.48946440 0.91018248
Xe   0.30977046 0.44845498 0.10963803
Xe   0.53784579 0.83528543 0.90448797
Xe   0.06678929 0.27847263 0.20695998
Xe   0.75934374 0.03878752 0.92143905
Xe   0.61509711 0.84015596 0.46718660
Xe   0.95186877 1.00001466 0.77357268
Xe   0.06537669 0.51038849 0.12058564
Xe   0.18238671 0.42722189 0.00932902
Xe   0.59177458 0.71436143 0.02090936
Xe   0.17650089 0.96415544 0.54159802
Xe   0.74905825 0.90741611 0.35849032
Xe   0.53098881 0.16128606 0.81442022
Xe   0.46447912 0.98650676 0.31749558
Xe   0.93163627 0.21990877 0.33176869
Xe   0.52310181 0.83638906 0.96907008
Xe   0.80270743 0.02532372 0.78659505
Xe   0.35672456 0.99398178 0.66505295
Xe   0.65351677 0.97285163 0.97954679
Xe   0.41402295 0.99155390 0.66433197
Xe   0.17859036 0.11724544 0.54660094
Xe   0.31378755 0.11792231 0.67436731
Xe   0.52374929 0.86272812 0.24741024
Xe   0.07589759 0.13494702 0.27199826
Xe   0.90935844 0.34340787 0.47600058
Xe   0.25606239 0.81364036 0.57389641
Xe   0.27126250 0.85322249 0.57776636
Xe   0.08940554 0.95529717 0.95875514
Xe   0.05485580 0.16159506 0.48803708
Xe   0.20676869 0.70261919 0.98156273
Xe   0.16870219 0.74021482 0.26185992
Xe   0.67867863 0.54358447 0.93234253
Xe   0.81311065 0.08243085 0.29005298
Xe   0.63104773 0.61733371 0.79293704
Xe   0.98485875 0.08042967 0.49979401
Xe   0.58388758 0.40506181 0.14384933
Xe   0.09181871 0.43706590 0.12180694
Xe   0.82123309 0.20672454 0.28521189
Xe   0.04664509 0.51939374 0.41820189
Xe   0.36852559 0.94065624 0.48160681
Xe   0.12394056 0.34702766 0.09228958
Xe   0.64449674 0.88708061 0.89458507
Xe   0.82851678 0.59009713 0.81225723
Xe   0.19376104 0.19961743 0.88041496
Xe   0.52279282 0.14479105 0.43438789
Xe   0.19689523 0.50462037 0.97380811
Xe   0.99663043 0.33780167 0.51374340
Xe   0.58140087 0.20095643 0.46887875
Xe   0.17984109 0.96149212 0.74280459
Xe   0.24383460 0.74187756 0.89539438
Xe   0.89677751 0.12733962 0.13581517
Xe   0.25684226 0.01411124 0.03731607
Xe   0.23616832 0.12402884 0.12935551
Xe   0.13581517 0.30487052 0.72341079
Xe   0.60216308 0.90675402 0.29974985
Xe   0.31052092 0.65166271 0.02352855
Xe   0.11998235 0.71650970 0.63877279
Xe   0.03072396 0.26143321 0.28942025
Xe   0.41380224 0.09551207 0.22592703
Xe   0.21724544 0.65862268 0.05600353
Xe   0.12207180 0.62207180 0.88169509
Xe   0.20938787 0.38743380 0.12146851
Xe   0.92164505 0.22501472 0.53301942
Xe   0.07204238 0.11727487 0.93057680
Xe   0.44284874 0.99617416 0.26646557
Xe   0.09501177 0.90198648 0.27823719
Xe   0.37497059 0.63936138 0.09383461
Xe   0.84877867 0.24998529 0.05242790
Xe   0.11063861 0.20556210 0.87017363
Xe   0.43087110 0.23550618 0.94682169
Xe   0.95645970 0.60879928 0.41858447
Xe   0.04568864 0.48762509 0.49690995
Xe   0.70896113 0.50570923 0.81952620
Xe   0.13865510 0.71153617 0.50313419
Xe   0.16602413 0.21233079 0.35506180
Xe   0.80257505 0.18382873 0.21418482
Xe   0.91093296 0.73069453 0.72835493
Xe   0.74651271 0.45020601 0.06770159
Xe   0.87945855 0.05198646 0.22035022
Xe   0.93793410 0.24732196 0.79158330
Xe   0.20847557 0.27973807 0.21539140
Xe   0.73454970 0.54714537 0.09105357
Xe   0.91444969 0.32589760 0.13819894
Xe   0.07750148 0.67277813 0.57336670
Xe   0.85697472 0.62043852 0.08630076
Xe   0.13840495 0.03003237 0.20782813
Xe   0.75723958 0.56939375 0.12007063
Xe   0.86933494 0.06720129 0.65612125
Xe   0.05122131 0.72074747 0.04061212
Xe   0.72417599 0.05173632 0.79867572
Xe   0.84961748 0.86002058 0.58069456
Xe   0.75020605 0.66923189 0.02226310
Xe   0.90824014 0.31723073 0.62369043
Xe   0.07413185 0.78020895 0.89017069
Xe   0.28724250 0.16302237 0.96730429
Xe   0.08656563 0.24552679 0.56801063
Xe   0.53326958 0.85612124 0.84926426
Xe   0.98819894 0.47832549 0.89786643
Xe   0.81904060 0.48887581 0.05180989
Xe   0.82781047 0.16854033 0.95116246
Xe   0.79507065 0.82012951 0.12703061
Xe   0.11246321 0.61752498 0.33478519
Xe   0.91902590 0.32085052 0.55166274
Xe   0.69253969 0.17617716 0.40616539
Xe   0.96964395 0.21088876 0.38897881
Xe   0.95473814 0.19314304 0.51163918
Xe   0.15900530 0.04308417 0.64537966
Xe   0.08287228 0.70439965 0.13410830
Xe   0.51105058 0.67089468 0.90144205
Xe   0.21389052 0.86942315 0.20125073
Xe   0.84243673 0.40500295 0.03874338
Xe   0.48001769 0.53350502 0.87014419
Xe   0.43353441 0.20419364 0.03325485
Xe   0.22672160 0.96030021 0.76939374
Xe   0.54405534 0.17822249 0.27273396
Xe   0.40416420 0.53278399 0.11109477
Xe   0.94368750 0.48840496 0.86824602
Xe   0.80409062 0.40066215 0.17093879
Xe   0.48129782 0.56773102 0.07399941
Xe   0.71005005 0.38733080 0.09560036
Xe   0.93359327 0.16180107 0.85025018
Xe   0.08603591 0.25270748 0.33715421
Xe   0.68899357 -.00420836 0.62035024
Xe   0.95778406 0.67314601 0.60120660
Xe   0.96155095 0.97492641 0.50069159
Xe   0.84624785 0.88844913 0.45897585
Xe   0.13811065 0.24089171 0.81762803
Xe   0.06874632 0.43587404 0.08394644
Xe   0.19923484 0.21383166 0.49677753
Xe   0.83322543 0.12454385 0.37776634
Xe   0.18349029 0.32035020 0.90072101
Xe   0.28697765 0.71056503 0.95994705
Xe   0.88974398 0.16389053 0.17185108
Xe   0.70918185 0.86425841 0.95019126
Xe   0.17492642 0.23790464 0.85120660
Xe   0.98672748 0.83038551 0.26623014
Xe   0.28095940 0.02588287 0.43683049
Xe   0.99273109 0.03131254 0.70029426
Xe   0.52772218 0.53044438 0.96255153
Xe   0.10538553 0.45569453 0.60673928
Xe   0.44289291 0.14532079 0.06839317
Xe   0.85359031 0.63711005 0.29267216
Xe   0.32320485 0.08297528 0.41758388
Xe   0.91600943 0.82349914 0.75982934
Xe   0.72420543 0.95573872 0.59902883
Xe   0.27912006 0.43833137 0.03028252
Xe   0.17937021 0.11765745 0.72032076
Xe   0.67164510 0.96602416 0.46693644
Xe   0.82170391 0.34524721 0.33953798
Xe   0.50442904 0.72527957 0.98044431
Xe   0.93809593 0.06701001 0.42816362
Xe   0.04137728 0.50360507 0.03997940
Xe   0.75273687 0.58446145 0.05762213
Xe   0.01681872 0.24530606 0.13597704
Xe   0.99464393 0.01558270 0.59334904
Xe   0.44074455 0.31138906 0.05804885
Xe   0.09059741 0.86103588 0.75597411
Xe   0.04724838 0.37625074 0.36337551
Xe   0.04278988 0.97351390 0.65406126
Xe   0.96288997 0.66715717 0.21318422
Xe   0.92851681 0.73978812 0.00935845
Xe   0.38663918 0.02361683 0.32744262
Xe   0.47279283 0.70126545 0.94864631
Xe   0.96436143 0.92789876 0.53786051
Xe   0.81130081 0.41381693 0.95592993
Xe   0.04259859 0.41336080 0.23454973
Xe   0.99134791 0.03700706 0.50540024
Xe   0.81877577 0.82582402 0.28178340
Xe   0.78132725 0.33085641 0.82461745
Xe   0.05981460 0.82766336 0.13269570
Xe   0.96753973 0.81758386 0.73244560
Xe   0.39327544 0.89334905 0.15772513
Xe   0.54540908 0.38234255 0.02517657
Xe   0.79383463 0.96206599 0.98650676
Xe   0.75853443 0.69211298 0.18100353
Xe   0.85763687 0.84293699 0.09635080
Xe   0.04714538 0.03051795 0.49560034
Xe   0.54924953 0.14552678 0.54265749
Xe   0.62929660 0.16141848 0.32520601
Xe   0.09633608 0.32296938 0.85909361
Xe   0.51805478 0.45042673 0.95194232
Xe   0.70356089 0.33634490 0.98902291
Xe   0.77099764 0.14089170 0.30208948
Xe   0.19072984 0.15812244 0.97055620
Xe   0.30931431 0.69075930 0.87015897
Xe   0.12957622 0.64830780 0.02115951
Xe   0.94851381 0.41252208 0.29418775
Xe   0.12341084 0.11801060 0.37673634
Xe   0.86243379 0.99133319 0.53681576
Xe   0.48378456 0.02193938 0.55397290
Xe   0.97561806 0.01090347 0.54168630
Xe   0.10363449 0.44231901 0.80918187
Xe   0.47277811 0.86490583 0.66010892
Xe   0.74173045 0.06948205 0.32982638
Xe   0.97304296 0.36753973 0.62448496
Xe   0.26727486 0.47781047 0.13868453
Xe   0.86578870 0.21568570 0.65088290
Xe   0.03914067 0.36727485 0.72439671
Xe   0.81393468 0.43972927 0.45076516
Xe   0.02960565 0.56824601 0.19870512
Xe   0.97268975 0.36022663 0.27407297
Xe   0.81848150 0.75618011 0.45462036
Xe   0.78627139 0.10787228 0.96986467
Xe   0.19835196 0.90703356 0.61135966
Xe   0.30310479 0.94202471 0.66893762
Xe   0.18278399 0.36887875 0.35879931
Xe   0.95747501 0.21043260 0.62096822
Xe   0.64067101 0.79124486 0.91405237
Xe   0.15654796 0.64356977 0.23413773
Xe   0.62233669 0.04586522 0.54097998
Xe   0.58965570 0.66293412 0.09480577
Xe   0.46341965 -.00175103 0.50055915
Xe   0.06514126 0.47592705 0.83056211
Xe   0.60881400 0.97895819 0.66745144
Xe   0.95790172 0.96987939 0.61518538
Xe   0.39555621 0.57127726 0.16339023
Xe   0.98784584 0.96812832 0.91212475
Xe   0.23209241 0.08980283 0.08961154
Xe   0.12720719 0.39165688 0.44289291
Xe   0.85656273 0.85442913 0.03818423
Xe   0.56530309 0.08154797 0.20345791
Xe   0.44805771 0.88198942 0.75442910
Xe   0.65258974 0.20772512 0.40751913
Xe   0.03862566 0.10409064 0.24053855
Xe   0.97566217 0.58997941 0.77341086
Xe   0.99901408 0.69421721 0.69200999
Xe   0.33047381 0.34711596 0.08599176
Xe   0.87594175 0.06075633 0.33304888
Xe   0.10887287 0.17695704 0.91696590
Xe   0.96031493 0.26745147 0.20257504
Xe   0.43937612 0.00317834 0.04302531
Xe   0.94587988 0.67530900 0.67011482
Xe   0.51683342 0.90270746 0.63269573
Xe   0.72594172 0.45632723 0.11103591
Xe   0.04067098 0.12633903 0.19879341
Xe   0.41630372 0.26802531 0.97692758
Xe   0.02761919 0.53459388 0.60785758
Xe   0.91031492 0.43584463 0.93303418
Xe   0.58544731 0.12149794 0.34582108
Xe   0.38821366 0.14373161 0.97823727
Xe   0.73098886 0.11124191 0.99223071
Xe   0.28238669 0.97595638 0.27598590
Xe   0.11621542 0.20565039 0.60233963
Xe   0.77299887 0.13159211 0.61673039
Xe   0.52813417 0.13834609 0.70425248
Xe   0.27932608 0.33222482 0.83059150
Xe   0.47039437 0.97261626 0.75843143
Xe   0.73324019 0.19577694 0.44277516
Xe   0.20915245 0.15316363 0.69914657
Xe   0.17658918 0.13474102 0.10906416
Xe   0.16546498 0.07663332 -.00412007
Xe   0.85236901 0.58972925 0.59947032
Xe   0.92560327 0.20831370 0.22077693
Xe   0.44683638 0.19535021 0.07878164
Xe   0.38151854 0.01711301 0.69814599
Xe   0.82583874 0.19817540 0.48160681
Xe   0.21562685 0.82386702 0.50129491
Xe   0.45815185 0.09264273 0.75086814
Xe   0.18013537 0.39358446 0.62426424
Xe   0.67717779 0.95217776 0.41302237
Xe   0.47856089 0.94351095 0.20949088
Xe   0.96224248 0.65345794 0.91627431
Xe   0.12442614 0.37043849 0.66917306
Xe   0.08319600 0.48903769 0.08303414
Xe   0.53078282 0.10258976 0.77685404
Xe   0.30618012 0.58418190 0.06284579
Xe   0.85211891 0.11984992 0.65425253
Xe   0.85306060 0.68015009 0.82317543
Xe   0.93438786 0.23301943 0.40713656
Xe   0.84580636 0.22945851 0.12916422
Xe   0.98001760 0.25503239 0.34510005
Xe   0.03225427 0.68140084 0.32608888
Xe   0.80364925 0.63906711 0.86836374
Xe   0.24087700 0.68761039 0.86936438
Xe   0.29018542 0.84901416 0.06144791
Xe   0.03965568 0.71219838 0.20431137
Xe   0.87653035 0.23816952 0.74386406
Xe   0.51776046 0.31265450 0.10835785
Xe   0.90464979 0.85812247 0.89479107
Xe   0.39022955 0.29482049 0.19620365
Xe   0.36053562 0.16879046 0.37168923
Xe   0.80206001 0.99075931 0.13435844
Xe   0.90044147 0.40784284 0.44165686
Xe   0.52308708 0.63409358 0.87473512
Xe   0.15314892 0.16050619 0.68874335
Xe   0.73800766 0.96130079 0.48762509
Xe   0.13403474 0.00176574 0.38010597
Xe   0.72829604 0.22604474 0.12102708
Xe   0.89171576 0.48588875 0.28906712
Xe   0.91496468 0.76623017 0.49830785
Xe   0.83449090 0.02912007 0.29604179
Xe   0.10359035 0.57054150 0.17661861
Xe   0.40732783 0.03553561 0.74605650
Xe   0.62120366 0.09436434 0.16459683
Xe   0.12017363 0.51236022 0.32891408
Xe   0.10650383 0.05751913 0.29149500
Xe   0.09348147 0.67402881 0.36895233
Xe   0.88404948 0.38840494 0.71593583
Xe   0.69358450 0.99586523 0.56314009
Xe   0.45239848 0.93905240 0.54043555
Xe   0.59477639 0.28855211 0.03992054
Xe   0.59008241 0.05178046 0.72557390
Xe   0.56063867 0.04664509 0.39399645
Xe   0.08337257 0.96168339 0.56283110
Xe   0.18917011 0.71839315 0.78597707
Xe   0.56202179 0.85070628 0.04944085
Xe   0.86324310 0.67448503 0.25670981
Xe   0.81677455 0.53605062 0.23198940
Xe   0.89839613 0.90155977 0.80114776
Xe   0.13216598 0.05067687 0.14462920
Xe   0.25632724 0.29771924 0.79423195
Xe   0.77107126 0.03756621 0.52694231
Xe   0.18116540 0.15825486 0.20055915
Xe   0.03736021 0.30868158 0.73752213
Xe   0.08569746 0.88385820 0.89046496
Xe   0.69530606 0.34596822 0.10628311
Xe   0.75619483 0.88150388 0.89764571
Xe   0.44028842 0.87666273 0.69352561
Xe   0.93366688 0.66141850 0.75298709
Xe   0.16890818 0.76461154 0.73837554
Xe   0.90163332 0.94816065 0.67707473
Xe   0.34396702 0.20910831 0.00328134
Xe   0.10865214 0.18671277 0.04457034
Xe   0.23453502 0.05590053 0.41511184
Xe   0.60029429 0.93045914 0.35011774
Xe   0.37435257 0.97617722 0.28216600
Xe   0.92366099 0.14693938 0.37408772
Xe   0.83899355 0.09667452 0.42360213
Xe   0.87745732 0.52583873 0.71387583
Xe   0.35223660 0.98051798 0.34854326
Xe   0.93978810 0.05464979 0.00721012
Xe   0.12164509 0.76247793 0.16306651
Xe   0.67104179 0.04757210 0.59457034
Xe   0.99602711 0.64109772 0.77664798
Xe   0.10801943 0.66643614 0.72522074
Xe   0.42186582 0.17491172 0.75270748
Xe   0.02803119 0.02268982 0.55030900
Xe   0.64290762 0.42577988 0.07330783
Xe   0.02017363 0.88169509 0.70163327
Xe   0.52529430 0.29031783 0.00169217
Xe   0.94961751 0.62495589 0.66893762
Xe   0.54905826 0.27338141 0.09240730
Xe   0.77645677 0.48241612 0.07938493
Xe   0.24821953 0.90475279 0.94233376
Xe   0.97792816 0.90254563 0.77747208
Xe   0.45726898 0.89507061 0.50875515
Xe   0.83357859 0.73032665 0.34932312
Xe   0.09944085 0.36097705 0.12722190
Xe   0.51562685 0.43010595 0.09866098
Xe   0.86191881 0.12897293 0.74224544
Xe   0.74367279 0.07279282 0.28559446
Xe   0.17838435 0.72226310 0.12371983
Xe   0.87741321 0.07583873 0.47998822
Xe   0.46319896 0.12751620 0.70662153
Xe   0.95401704 0.85325193 0.83368158
Xe   0.71256620 0.01597999 0.66240436
Xe   0.05317834 0.07195409 0.56787813
Xe   0.03157740 0.65167743 0.63182753
Xe   0.95544440 0.72728074 0.75773984
Xe   0.92432314 0.32898763 0.27686876
Xe   0.04462919 0.84833729 0.67260152
Xe   -.00033843 0.78478515 0.49973518
Xe   0.12863448 0.28022367 0.37482342
Xe   0.59514421 0.75731313 0.19899942
Xe   0.35779870 0.68190110 0.93379927
Xe   0.46696588 0.12847263 0.44159800
Xe   0.23150383 0.50367862 0.01419953
Xe   0.67411715 0.34361389 0.91268396
Xe   0.18432902 0.59371686 0.51715714
Xe   0.90129489 0.18293114 0.93371105
Xe   0.18349029 0.86879045 0.75139785
Xe   0.30069157 0.26374337 0.96886408
Xe   0.98497653 0.12511772 0.18197469
Xe   0.68390232 0.05984402 0.10888758
Xe   0.43429959 0.12092408 0.93949383
Xe   0.13875809 0.21197763 0.27688345
Xe   0.90389937 0.41987935 0.78610951
Xe   0.09914656 0.47655976 0.04136257
Xe   0.71687758 0.15678340 0.19839612
Xe   0.33793408 0.84869039 0.10566510
Xe   0.83946437 0.40831372 0.89220130
Xe   0.01127134 0.02380812 -.00319305
Xe   0.48606536 0.86462623 0.47441143
Xe   0.55516481 0.53755152 0.09142143
Xe   0.83663923 0.17756034 0.38123897
Xe   0.50416422 0.62195414 0.96854031
Xe   0.54540908 0.72884053 0.79383463
Xe   0.20460565 0.07733961 0.66917306
Xe   0.34646851 0.71003532 0.03112125
Xe   0.21225722 0.05492937 0.99033260
Xe   0.31962919 0.20526780 0.34643909
Xe   0.34629196 0.97764868 0.84643906
Xe   0.31474397 0.93178344 0.39979401
Xe   0.43977338 0.95916712 1.00130963
Xe   0.15041201 0.24187757 0.71155089
Xe   0.53446144 0.46311066 0.01670100
Xe   0.11837846 0.65971160 0.91730434
Xe   0.20289876 0.60353148 0.07788406
Xe   0.97576523 0.47635376 0.65796059
Xe   0.87426430 0.21330194 0.07093879
Xe   0.67532372 0.50467926 0.86343437
Xe   0.76664215 0.95331085 0.94982350
Xe   0.70804888 0.93705118 0.24220128
Xe   0.88468218 0.98019421 0.77523547
Xe   0.86677456 0.78172457 0.37282225
Xe   0.11110948 0.74795473 0.91534728
Xe   0.26211005 0.16330194 0.88329899
Xe   0.06160977 0.86567104 0.34256917
Xe   0.03949382 0.33933198 0.39112714
Xe   0.67105651 0.84128898 0.47472045
Xe   0.96380222 0.21243379 0.43846381
Xe   0.64963210 0.20366392 0.86696583
Xe   0.28719836 0.25532666 0.14389347
Xe   0.09349617 0.82791346 0.31572986
Xe   0.81046200 0.39136258 0.59287816
Xe   0.14393760 0.90660679 0.37829605
Xe   0.09121542 0.03953797 0.12376399
Xe   0.58481461 0.08909652 0.78321075
Xe   0.92190993 0.35386992 0.35041201
Xe   0.72055626 0.90507650 0.13925838
Xe   0.20385522 0.96686286 0.18406415
Xe   -.00047087 0.93076813 0.45067689
Xe   0.95379633 0.99674809 0.35348737
Xe   0.12831077 0.91946733 0.70107418
Xe   0.89421719 0.48190111 0.85245734
Xe   0.32732493 0.02358741 0.35567984
Xe   0.03635962 0.72317541 0.61917305
Xe   0.62358743 0.44524723 0.16630371
Xe   0.14679223 0.24655680 0.95161855
Xe   0.83318132 0.55993235 0.67210120
Xe   0.84390819 0.47580928 0.14521778
Xe   0.17386699 0.32548559 0.05997646
Xe   0.20701884 0.00235433 0.60567981
Xe   0.16586228 0.39089170 0.84587991
Xe   0.06587699 0.80615067 0.46499410
Xe   0.73369628 0.89511478 0.71586227
Xe   0.88429958 0.06961448 0.80045611
Xe   0.92105651 0.46333140 0.12633903
Xe   0.11137433 0.08797822 0.82711887
Xe   0.85175103 0.18028252 0.12750147
Xe   0.33549145 0.73635960 0.96456742
Xe   0.88334316 0.24446735 0.41358152
Xe   0.14358447 0.28763980 0.09434962
Xe   0.39686581 0.02639788 0.58905244
Xe   0.99040610 0.21678929 0.80401707
Xe   0.14015597 0.10226604 0.33484402
Xe   0.90594471 0.31868747 0.32010007
Xe   0.67113012 0.29583579 0.08687463
Xe   0.39799884 0.75253087 0.05738670
Xe   0.62972337 0.12477928 0.80032372
Xe   0.88116539 0.92249852 0.75379634
Xe   0.86477339 0.83969986 0.92778105
Xe   0.95044148 0.52207178 0.00851972
Xe   0.48306355 0.69617420 0.01183049
Xe   0.43332842 0.00359035 0.43175396
Xe   0.59473217 0.50707769 0.16290465
Xe   0.91259569 0.02241024 0.22764862
Xe   0.20075044 0.99098003 0.97856092
Xe   0.37096822 0.89408475 0.72464687
Xe   0.31274280 0.08241612 0.71977633
Xe   0.60026485 0.89239258 0.60809302
Xe   0.91500878 0.79969102 0.92276341
Xe   0.22505887 0.78246027 0.06268393
Xe   0.49402592 0.03674220 0.67407304
Xe   0.05523837 0.18079753 0.31884933
Xe   0.27115950 0.95687169 0.74483520
Xe   0.89919072 0.33886108 0.71952617
Xe   0.10921130 0.76930553 0.62714833
Xe   0.53238672 0.24998529 0.04162743
Xe   0.51774573 0.64345205 0.12204237
Xe   0.99512947 0.08869924 0.76527369
Xe   0.37873751 0.85108888 0.79739559
Xe   0.31291938 0.64954388 0.07370512
Xe   0.36010888 0.04078870 0.84489405
Xe   0.79150975 0.27523544 0.53853738
Xe   0.82454383 0.87235141 0.52474982
Xe   0.71942317 0.05329606 0.43143025
Xe   0.70136845 0.93390226 0.79448205
Xe   0.38497648 0.06365509 0.71290469
Xe   0.13413773 0.43413773 0.02860506
Xe   0.32238081 0.85991758 0.23185697
Xe   0.96920246 0.19587994 0.76138908
Xe   0.77860510 0.84670395 0.68814009
Xe   0.18410830 0.88210714 0.23488818
Xe   0.61811358 0.25799000 0.92427897
Xe   0.59523249 0.06784873 0.51422894
Xe   0.87706006 0.19318716 0.28207770
Xe   0.82123309 0.91820192 0.00169217
Xe   0.32451445 0.86525899 0.35132429
Xe   0.38609478 0.12698646 0.38671279
Xe   0.02863449 0.03660977 0.75619483
Xe   0.19583578 0.60045612 0.83246028
Xe   0.41286051 0.50263393 0.86316949
Xe   0.76472926 0.97113013 0.40899059
Xe   0.93059152 0.69786638 0.38822839
Xe   0.37205708 0.04795468 0.01187463
Xe   0.41508240 0.88079756 0.29198059
Xe   0.32641262 0.11494997 0.89331961
Xe   0.77567691 0.41349325 0.09947028
Xe   0.91346377 0.93871391 0.04980871
Xe   0.39540908 0.94070041 0.00601825
Xe   0.35803416 0.00406121 0.01155091
Xe   0.96049148 0.37351385 0.33522660
Xe   0.56124187 0.33615363 0.12811948
Xe   0.46986461 0.11389052 0.26989403
Xe   0.35987347 0.10294291 0.65161860
Xe   0.75279576 0.86684817 0.95239848
Xe   0.83719838 0.50829899 0.10869630
Xe   0.95790172 0.35632724 0.68818426
Xe   0.08435845 0.71837842 0.39692467
Xe   0.89985287 0.33022365 0.80431134
Xe   0.56305182 0.95513541 0.75590050
Xe   0.87333727 0.77263093 0.61119777
Xe   0.19430548 0.01945262 0.22010006
Xe   0.34949973 0.38216600 0.79539436
Xe   0.51084459 0.08238670 0.42807534
Xe   0.99289286 0.36444968 0.71955562
Xe   0.37118894 0.95354623 0.68894941
Xe   0.21102118 0.83400530 0.13843438
Xe   0.05250147 0.13578576 0.77232194
Xe   0.08555032 0.34745440 0.37373456
Xe   0.71624482 0.02005592 0.71625954
Xe   0.55697471 0.17970866 0.77457327
Xe   0.94515896 0.08237199 0.87155682
Xe   0.92271924 0.21664214 0.27082109
Xe   0.59064156 0.10887287 0.12070335
Xe   0.44883755 0.40604767 0.12217481
Xe   0.62427896 0.74059743 0.86397880
Xe   0.78375518 0.98621255 0.32204238
Xe   0.98200411 0.08176869 0.91133016
Xe   0.19053856 0.39577693 0.73243088
Xe   0.82319015 0.44785169 0.98112130
Xe   0.79610068 0.20644496 0.05885815
Xe   0.77455854 0.98438793 0.54873455
Xe   0.39183342 0.85489994 0.69705713
Xe   0.52572101 0.05167746 0.17975280
Xe   0.57810473 0.14411418 0.62307245
Xe   0.54844028 0.62027663 1.00142729
Xe   0.99158329 0.91896701 0.36749560
Xe   0.97904658 0.31447911 0.19111241
Xe   0.54507065 0.75641555 0.93694818
Xe   0.47330785 0.71365511 0.90364921
Xe   0.02457328 0.94657153 0.31005001
Xe   0.03984697 0.11349323 0.01258093
Xe   0.52046788 0.76980579 0.78949380
Xe   0.53775752 0.77948791 0.01826074
Xe   0.94290763 0.32873750 0.72617722
Xe   0.18606535 0.16693644 0.83613890
Xe   0.68955266 0.05984402 0.36592114
Xe   0.08134197 0.19265746 0.56865805
Xe   0.68465275 0.35709241 0.04864626
Xe   0.70207477 0.90626842 0.46575928
Xe   0.23487346 0.40804887 0.01808417
Xe   0.30223662 0.85394353 0.77433789
Xe   0.87731022 0.94621837 0.11387581
Xe   0.82820779 0.04636551 0.17566215
Xe   0.91808420 0.38624191 0.92138022
Xe   0.15242790 0.19682167 0.94824898
Xe   0.88422602 0.81765747 0.05322248
Xe   0.30597413 0.82004118 0.18538846
Xe   0.57064450 0.94936723 0.69886696
Xe   0.05002943 0.58359331 0.07149795
Xe   0.45638612 0.65853447 0.98069459
Xe   0.33272514 0.07118893 0.53416711
Xe   0.86649501 0.81508243 0.75519425
Xe   0.86442024 0.23399059 0.89897001
Xe   0.40832844 0.86246324 0.24075927
Xe   0.90594471 0.57517660 0.43156269
Xe   0.69015598 0.10819600 0.13334315
Xe   0.81093293 0.17336668 0.02728075
Xe   0.47845790 0.63042969 0.86119777
Xe   0.16730429 0.32678047 0.68067980
Xe   0.85354620 0.92857563 0.55001473
Xe   0.25875515 0.06489111 0.01130076
Xe   0.92984110 0.03600648 0.30125073
Xe   0.95045620 0.01455268 0.87925255
Xe   0.78148913 -.00004414 0.50064743
Xe   0.08434373 0.28602120 0.30972630
Xe   0.52405828 0.95339906 0.26999706
Xe   0.75538552 0.05105945 0.63931727
Xe   0.30438495 0.15909359 0.13618305
Xe   0.91185993 0.95451742 0.72685403
Xe   0.96506768 0.17207181 0.35203061
Xe   0.77616245 0.46580341 0.81633317
Xe   0.27731019 0.89554149 0.30826959
Xe   0.53165096 0.89143616 0.89324605
Xe   0.16446440 0.63702178 0.53353441
Xe   0.09195115 0.09364332 0.72082108
Xe   0.79099470 0.71942317 0.68138611
Xe   0.24052384 0.68165100 0.08874338
Xe   0.07932607 0.53028250 0.50831372
Xe   0.72139496 0.88544732 0.22763391
Xe   0.05244261 0.41311067 0.02555915
Xe   0.03284285 0.20704827 0.84693938
Xe   0.04492348 0.77544147 1.00095654
Xe   0.76353735 0.62037963 0.89393759
Xe   0.14643908 0.20974103 0.89130372
Xe   0.55189818 0.91578871 0.26106533
Xe   0.43547675 0.07951736 0.71511185
Xe   0.29540908 0.68388760 0.10403179
Xe   0.37289581 0.21417011 0.60206002
Xe   0.72255737 0.01671572 0.18154797
Xe   0.04346675 0.11356680 0.30759269
Xe   0.88085639 0.15223661 0.09309889
Xe   0.89359921 0.52661860 0.41662741
Xe   0.97316074 0.48962629 0.18374044
Xe   0.80575335 0.26755446 0.08419659
Xe   0.12123308 0.64789581 0.16450854
Xe   0.81700999 0.30959389 0.11970277
Xe   0.92417598 0.19574751 0.06503826
Xe   0.79814601 0.68733078 0.87422013
Xe   0.57389641 0.00787228 0.75660682
Xe   0.27377871 0.84811658 0.82344025
Xe   0.84061211 0.40298703 0.68300474
Xe   0.16870219 0.21050619 0.12438199
Xe   0.15022071 0.53101826 0.96867275
Xe   0.01105062 0.64922011 0.91393471
Xe   0.23394644 0.51864332 0.88429958
Xe   0.09487934 0.98875809 0.60450268
Xe   0.77045321 1.00150084 0.65438497
Xe   0.02708946 0.32962036 0.56015307
Xe   0.75625372 0.20871101 0.40026486
Xe   0.54330492 0.89452618 0.52892876
Xe   0.54518831 0.20428194 0.04352560
Xe   0.75534141 0.19523248 0.04036198
Xe   0.73499119 0.00167746 0.46419954
Xe   0.01130076 0.81172752 0.80388463
Xe   0.67346972 0.65660685 0.93343145
Xe   0.40222189 0.78711009 0.95016181
Xe   0.26734844 0.90932906 0.06372866
Xe   0.24963214 0.10828429 0.17660388
Xe   0.07532372 0.37985581 0.69533551
Xe   0.97583878 0.48179811 0.81266922
Xe   0.15506181 0.41052091 0.69677752
Xe   0.70235431 0.06233079 0.86241907
Xe   0.01108005 0.63975871 0.72613305
Xe   0.68287230 0.15414950 0.78914070
Xe   0.52786934 0.97751617 0.78741908
Xe   0.13940553 0.47235140 0.75884342
Xe   0.82839906 0.77276337 0.86327249
Xe   0.10822543 0.40479696 0.48819897
Xe   0.76856971 0.93528545 0.30919659
Xe   0.03079753 0.65089762 0.29183343
Xe   0.16887876 0.44670394 0.31052092
Xe   0.07910535 0.09972043 0.78527075
Xe   0.82686877 0.58170986 0.20457622
Xe   0.77920842 0.75279576 0.04187758
Xe   0.77057093 0.95020598 0.58406419
Xe   0.01450853 0.17925251 0.97875220
Xe   0.81942320 0.43886110 0.11238964
Xe   0.88606530 0.65949088 0.19882284
Xe   0.43328428 0.95851970 0.84611535
Xe   0.97557390 0.08493231 0.61389053
Xe   0.96025610 0.57489699 0.09536492
Xe   0.01030018 0.33784577 0.95083880
Xe   0.03647734 0.11043261 0.51193351
Xe   0.56261039 0.60635668 0.89970571
Xe   0.89791054 0.68630075 0.49473223
Xe   0.97295469 0.95682758 0.44396704
Xe   0.87139499 0.28908181 0.12906121
Xe   0.80072099 0.03560918 0.33547676
Xe   0.70934373 0.95161855 0.66094762
Xe   0.49515894 0.00821071 0.92202765
Xe   0.29546791 0.15825486 0.01898175
Xe   0.82923782 0.13546205 0.26964393
Xe   0.22051206 0.64123011 0.95635676
Xe   0.33209240 0.13749264 0.21269865
Xe   0.14961743 0.66840786 0.63591820
Xe   0.84161270 0.04502648 0.53115070
Xe   0.02452914 0.43521190 0.83503532
Xe   0.94504118 0.04745438 0.38387287
Xe   0.58803713 0.53655094 0.05267804
Xe   0.68513834 0.59621841 0.94942617
Xe   0.14040612 0.21868747 0.45594469
Xe   0.97766334 0.01030018 0.39989701
Xe   0.63859624 0.90943205 0.54449677
Xe   0.13427016 0.49171573 0.55704826
Xe   0.91394937 0.52389640 0.47651559
Xe   0.00055915 0.18159211 0.47811949
Xe   0.29343730 0.08886109 0.38190112
Xe   0.23067981 0.64972043 0.77778107
Xe   0.93269575 0.62976754 0.19290759
Xe   0.79153913 0.77839911 0.18365215
Xe   0.87717777 0.57488227 0.99361390
Xe   0.09155386 0.14246616 0.82014418
Xe   0.40994704 0.82374924 0.21185991
Xe   0.19261330 0.14442319 0.49983817
Xe   0.01864332 0.37726605 0.86715716
Xe   0.85476750 0.15847558 0.31082991
Xe   0.88210714 0.51062387 0.90335488
Xe   0.94699830 0.33687463 0.05824014
Xe   0.80002940 0.91565627 0.34083286
Xe   0.10857858 0.53022367 0.12139494
Xe   0.57807535 0.93794882 0.97143906
Xe   0.94125956 0.16389053 0.25470865
Xe   0.88056207 0.47783989 0.55719543
Xe   0.98663926 0.13409358 0.07489700
Xe   0.73616832 0.01038846 0.76678932
Xe   0.51216894 0.28372571 0.78390229
Xe   0.07302825 0.09754267 0.98153329
Xe   0.05718070 0.32954681 0.17152737
Xe   0.72448498 0.16995291 0.09782225
Xe   0.94515896 0.85704827 0.02107122
Xe   0.46827546 0.06243379 0.49120072
Xe   0.87307239 0.62042379 0.88162154
Xe   0.99471748 0.45965275 0.14793997
Xe   0.97682464 0.12892878 0.63219541
Xe   0.50420833 0.38017952 0.92563272
Xe   0.11702472 0.86412597 0.70105946
Xe   0.58515298 0.10185403 0.47064450
Xe   0.16518541 0.08137140 0.21830489
Xe   0.11811361 0.52962035 0.06458211
Xe   0.50117719 0.44305477 0.15937316
Xe   0.18911125 0.29345205 0.15160389
Xe   0.24152443 0.93065041 0.16403767
Xe   0.59972042 0.62711889 0.01896704
Xe   0.30361980 0.98633015 0.75721014
Xe   0.69540906 0.18404944 0.51648027
Xe   0.67355800 0.95715123 0.70966744
Xe   0.12566215 0.59829313 0.53509420
Xe   0.08884639 0.30919659 0.51308119
Xe   0.76798117 0.17950265 0.73621249
Xe   0.93125367 0.19308417 0.57258677
Xe   0.00869629 0.90281045 0.28713951
Xe   0.53054738 0.55701882 0.81755447
Xe   0.72213066 0.95147151 0.08297528
Xe   0.88481462 0.25281048 0.51856977
Xe   0.93022364 0.19808711 0.88293117
Xe   0.51183051 0.00164803 0.37010008
Xe   0.78621250 0.83597708 0.23943496
Xe   0.45878461 0.16409653 0.00388464
Xe   0.91168338 0.61924660 0.10289877
Xe   0.93040025 0.38475576 0.16746615
Xe   0.34592408 0.79646850 0.04891112
Xe   0.31075633 0.70779872 0.05916716
Xe   0.32270452 0.91449380 0.69982344
Xe   0.30492938 0.00010300 0.67488229
Xe   1.00306058 0.73574162 0.74022955
Xe   0.64112711 0.98416722 0.60423779
Xe   0.44807240 0.21040317 0.56612712
Xe   0.61208063 0.03079753 0.68376988
Xe   0.95251620 0.94286352 0.74333429
Xe   0.40785757 0.08281342 0.36291936
Xe   0.63301945 0.16664214 0.89735138
Xe   0.64871985 0.05653325 0.14336374
Xe   0.13429959 0.96308118 0.11263979
Xe   0.26437610 0.06806945 0.52706003
Xe   0.07101236 0.57666272 0.60400236
Xe   0.93577105 0.83106238 0.36696586
Xe   0.02282225 0.69998527 0.88627136
Xe   0.55620950 0.57729548 0.93939084
Xe   0.88591820 0.02102708 0.47441143
Xe   0.54935259 0.69555622 0.07070335
Xe   0.04383461 0.66166860 0.47305766
Xe   0.02032078 0.85856384 0.83652145
Xe   0.30110359 0.74585050 0.18555032
Xe   0.83721304 0.06509712 0.46147734
Xe   0.94855791 0.73837554 0.90794581
Xe   0.47919369 0.08747793 0.52776635
Xe   0.93351972 0.17603002 0.10804885
Xe   0.81987935 0.84070039 0.40017655
Xe   0.95631254 0.30592996 0.59895527
Xe   0.35910830 0.06917305 0.92160094
Xe   0.57201296 0.83672750 0.25860801
Xe   0.16536199 0.69196588 0.53787524
Xe   0.83010596 0.49836668 0.79942614
Xe   0.11414067 0.45126545 0.45317835
Xe   0.92907596 0.31522956 0.76080048
Xe   0.18035610 0.91347855 0.26852560
Xe   0.15464979 0.53281343 0.09392290
Xe   0.81603885 0.79640967 0.41798118
Xe   0.83325481 0.65100062 0.41022661
Xe   0.69115657 0.17504415 0.45551798
Xe   0.51655388 0.97691286 0.69170099
Xe   0.15201589 0.58663923 0.06593584
Xe   0.24532080 0.36336082 1.00320780
Xe   0.70260447 0.92558861 0.50909358
Xe   0.96025610 0.19362861 0.67620665
Xe   0.96534735 0.84517366 0.69383460
Xe   0.64105362 0.54248089 0.05637140
Xe   -.00572396 0.33450559 0.90110356
Xe   0.01293408 0.06178634 0.33160684
Xe   0.51002061 0.72346967 0.02938493
Xe   0.23627132 0.92411715 0.69938201
Xe   0.20345791 0.16655385 0.10079458
Xe   0.58700711 0.92086524 0.52795762
Xe   0.82726604 0.37422013 0.26474398
Xe   0.59624779 0.15160389 1.00492930
Xe   0.53840494 0.04686580 0.75709242
Xe   0.43459389 0.07753091 0.53890526
Xe   0.07853149 0.61181575 0.13678634
Xe   0.77438200 0.86505300 0.38437316
Xe   0.95787227 0.50222188 0.12107121
Xe   0.59387875 0.23962624 0.19370218
Xe   0.03304885 0.53841966 0.14994113
Xe   0.08463802 0.98459393 0.65023541
Xe   0.94323128 0.16012360 0.61767220
Xe   0.67825192 0.18761036 0.90740144
Xe   0.04540906 0.23341672 0.20014715
Xe   0.41790760 0.85603297 0.50737196
Xe   0.67442614 0.12198352 0.17886993
Xe   0.86138910 0.87550032 0.14192173
Xe   0.86883461 0.41266921 0.18662448
Xe   0.88481462 0.22419070 0.95844620
Xe   0.75113302 0.53165096 0.04192172
Xe   0.29714540 0.47039437 0.77447027
Xe   0.05607711 0.58112127 0.72270459
Xe   0.82682467 0.90623897 0.94521779
Xe   0.07500000 0.77220422 0.38396114
Xe   0.64071512 0.44524723 0.88272518
Xe   0.75076514 0.90859330 0.19540906
Xe   0.52182168 0.03085638 0.09760153
Xe   0.02635374 -.00357563 0.18736021
Xe   0.22879635 0.40956444 0.07226309
Xe   0.92742789 0.30598882 0.17547087
Xe   0.69020009 0.21168335 0.72033548
Xe   0.64236313 0.79196584 0.04352560
Xe   0.04006769 0.95956445 0.70110357
Xe   0.04245144 0.63537377 0.95566511
Xe   0.85222191 0.81452328 0.13170983
Xe   0.63268101 0.74161273 0.03304885
Xe   0.05058858 0.42014420 0.80439967
Xe   0.56412596 0.13073868 0.84654206
Xe   0.76837850 0.44936728 0.15865214
Xe   0.35454679 0.06314008 0.57888466
Xe   0.40466452 0.11321365 0.68462330
Xe   0.93909651 0.04117128 0.70395821
Xe   0.77873749 0.82817835 0.93120956
Xe   0.45091230 0.30687168 0.88119483
Xe   0.19495291 0.73090053 0.84389353
Xe   0.16609770 0.85798997 0.42648616
Xe   0.02190995 0.21339023 0.55487049
Xe   0.51612717 0.90300179 0.75612128
Xe   0.92105651 0.26137435 0.09145086
Xe   0.68987638 0.81113893 0.96634781
Xe   0.96339023 0.74543852 0.27477929
Xe   0.17114478 0.08465274 0.62577987
Xe   0.90604770 0.14574750 0.57058567
Xe   0.49922010 0.76130074 0.11031490
Xe   0.89888173 0.25902003 0.36773100
Xe   0.82561803 1.00080931 0.63824308
Xe   0.27380812 0.18459389 0.36249265
Xe   0.02230724 0.54208356 0.76584756
Xe   0.96574461 0.07039435 0.28397587
Xe   0.84947026 0.95111835 0.60026485
Xe   0.88803715 0.59145087 0.83877277
Xe   0.80707771 0.87018836 0.61767220
Xe   0.87560332 0.34131843 0.86035907
Xe   0.92750150 0.39333433 0.67192471
Xe   0.85223663 0.13490289 0.91533256
Xe   0.03240141 0.51138908 0.66615659
Xe   0.24106827 0.82703066 0.04590936
Xe   0.40787229 0.03278399 0.38347560
Xe   0.00429665 0.52797234 0.19860211
Xe   0.82857567 0.21829018 0.85804886
Xe   0.21743673 0.98594761 0.71656859
Xe   0.09835197 0.38006181 0.79180402
Xe   0.39866099 0.91372865 0.04842554
Xe   0.81394941 0.77257216 0.12192467
Xe   0.63930249 0.13833137 0.22984108
Xe   0.53781635 0.47346967 0.90826958
Xe   0.95959383 0.34863156 0.39970571
Xe   0.11758388 0.66790760 0.60537082
Xe   0.77080637 0.28159210 0.80566508
Xe   0.38434374 0.83588874 0.87104177
Xe   0.94470280 0.94842559 0.79078871
Xe   0.05404650 0.83790469 0.23721308
Xe   0.88772810 0.80523837 0.33113596
Xe   0.92608887 0.49863157 0.82630956
Xe   0.10763685 0.26905534 0.86996764
Xe   0.38997942 0.69874924 0.84571809
Xe   0.80954969 0.63603586 0.91967332
Xe   0.97167456 0.26469982 0.52074748
Xe   0.89175987 0.73759562 0.14532079
Xe   0.55788702 0.09530607 0.73282814
Xe   0.92583871 0.14184815 0.45943201
Xe   0.39070043 0.58441728 0.11932019
Xe   0.23060624 0.09814597 0.62798709
Xe   0.81880516 0.89564449 0.13218069
Xe   0.44582108 0.74742496 0.08859623
Xe   0.94173044 0.41249266 0.53266627
Xe   0.77750146 0.86918777 0.11184520
Xe   0.57127726 0.03045909 0.26400822
Xe   0.26262507 0.05771042 0.95173633
Xe   0.30651852 0.14077400 0.27476457
Xe   0.36721599 0.59306943 0.86617130
Xe   0.00245733 0.51437610 0.98605067
Xe   0.84093589 0.70132428 0.89913183
Xe   0.15314892 0.51620072 0.88159209
Xe   0.06147734 0.53356391 0.84002358
Xe   0.03400530 0.14293702 0.10236904
Xe   0.48324013 0.82576513 0.13378458
Xe   0.36225721 0.68674225 -.00188346
Xe   0.85400236 0.34192172 0.11031490
Xe   0.91365510 0.63606536 0.71459681
Xe   0.87588292 0.67294002 0.91275752
Xe   0.73244560 0.69377571 0.07364626
Xe   0.54614484 0.07491171 0.06196292
Xe   0.96587700 0.99535018 0.67385226
Xe   0.72419071 0.20437022 0.00182460
Xe   0.66459686 0.00545909 0.00957916
Xe   0.20620954 0.45688641 0.05541495
Xe   0.90910834 0.98753679 0.65506184
Xe   0.36446437 0.01759859 0.89780754
Xe   0.41511184 0.60776931 0.78927308
Xe   0.12672161 0.54221600 0.85336959
Xe   0.17697176 0.59602708 0.25191289
Xe   0.71224248 0.04761625 0.90013242
Xe   0.68516773 0.19156857 0.64801359
Xe   0.93003243 0.60719538 0.86664212
Xe   0.25364923 0.04780754 0.36077103
Xe   0.87037969 0.98524135 0.14758681
Xe   0.77744263 0.96618605 0.19198057
Xe   0.19336374 0.95338434 0.23452030
Xe   0.86664212 0.93802238 0.44579163
Xe   0.80721015 0.58837551 0.09458505
Xe   0.16708358 0.30470866 0.94464391
Xe   0.70507652 0.10409064 0.67497057
Xe   0.10138316 0.19037668 0.31905535
Xe   0.63042969 0.23303413 0.09955856
Xe   0.40501764 0.64362866 0.04487934
Xe   0.06364037 0.39508536 0.13615362
Xe   0.82682467 0.95972633 0.41213951
Xe   0.35815185 0.50256032 0.93588877
Xe   0.42661861 0.80716598 0.06047675
Xe   0.62243968 0.85619485 0.22714832
Xe   0.65687168 0.14907297 0.07149795
Xe   0.37900236 0.04273102 0.28522661
Xe   0.67190993 0.88178337 0.15615068
Xe   0.29486462 0.75679809 0.92811948
Xe   0.17605945 0.84334904 0.89058268
Xe   0.02138022 0.47163033 0.63787520
Xe   0.12326369 0.30540022 0.90192759
Xe   0.08078281 0.81446445 0.69362861
Xe   0.96211010 0.42869335 0.67277813
Xe   0.94205421 0.51990879 0.05645968
Xe   0.93891996 0.09738082 0.54804295
Xe   0.04373160 0.57945853 0.67869335
Xe   0.05175103 0.42806062 0.68291640
Xe   0.61306655 0.15316363 0.28525603
Xe   0.12951736 0.55684227 0.01424367
Xe   0.90598881 0.19380517 0.64342260
Xe   0.79866099 0.73221016 0.19089170
Xe   0.11855504 0.72438198 0.12500000
Xe   0.03999411 0.15582696 0.14648323
Xe   0.12135080 0.48505005 0.09717481
Xe   0.43738964 0.12592702 0.82962036
Xe   0.94654214 0.65064740 0.54827845
Xe   0.67310184 0.66316950 0.99228954
Xe   0.04448205 0.32889935 0.43482932
Xe   0.06502355 0.73718363 0.24355504
Xe   0.65276635 0.85972631 0.38400531
Xe   0.79901409 0.43253386 0.06431724
Xe   0.52371985 0.09614479 0.88513833
Xe   0.09108299 0.37931135 0.60332549
Xe   0.99252510 0.95704830 0.79127431
Xe   0.36440551 0.05245733 0.65615070
Xe   0.49070042 0.00904944 0.07080635
Xe   0.42888463 1.00010300 0.78738970
Xe   0.62889940 0.97011477 0.50000000
Xe   0.87979698 0.46773103 0.17629488
Xe   0.50925547 -.00114773 0.20788699
Xe   0.44295174 1.00010300 0.54217190
Xe   0.93129784 0.64358443 0.48045909
Xe   0.63740438 0.95952034 0.94226021
Xe   1.00278103 0.61855501 0.82842851
Xe   0.41290468 0.86851090 0.12117422
Xe   0.62560326 0.91489112 0.98869926
Xe   0.35575339 0.10700412 0.70541495
Xe   0.15570924 0.04127428 0.92307240
Xe   0.38788995 0.14807239 0.83668333
Xe   0.43260741 0.17550030 0.42816362
Xe   0.98176873 0.04217187 0.84432024
Xe   0.98375523 0.70816654 0.26999706
Xe   0.80289876 0.83051801 0.34970573
Xe   0.83784580 0.17451441 0.18309300
Xe   0.53755152 0.33759567 0.17227781
Xe   0.74005294 0.65947616 0.91343439
Xe   0.98992056 0.02363155 0.33454973
Xe   0.79018539 0.60258979 0.00834314
Xe   0.81331664 0.85151559 0.03065038
Xe   0.78518248 0.63095939 0.13546205
Xe   0.18633020 0.37270454 0.41190407
Xe   0.86550915 0.13200411 0.95478225
Xe   0.84436435 0.59749854 0.13585933
Xe   0.88475573 0.10079458 0.35407594
Xe   0.10721012 0.52555913 0.90634197
Xe   0.56555331 1.00473809 0.67388171
Xe   0.00019129 0.98981750 0.63478518
Xe   0.73116535 0.09788111 0.72092408
Xe   0.14470276 0.27205709 0.66171283
Xe   0.56962925 0.75258976 0.05420836
Xe   0.95226610 0.88593292 0.11949677
Xe   0.82536787 0.12080636 0.46283108
Xe   0.90941733 0.65378165 0.65966749
Xe   0.90879929 0.88993526 0.27650088
Xe   0.24015597 0.89192176 0.54304004
Xe   0.25849029 0.95899051 0.48140082
Xe   0.84374630 0.66190410 0.86958504
Xe   0.13200411 -.00336963 0.65251619
Xe   0.60080934 0.00017657 0.02829606
Xe   0.87714833 0.09598293 0.52660388
Xe   0.86522955 0.75941730 0.26643616
Xe   0.02620659 0.50392884 0.09773397
Xe   0.96115363 0.27174810 0.00013243
Xe   0.83980286 0.01291936 0.92675102
Xe   0.12729546 0.83709538 0.91246325
Xe   0.05097116 0.20837258 0.51636255
Xe   0.63825780 0.63946438 0.88666862
Xe   0.25721011 0.03390229 0.16480282
Xe   0.95272225 0.16243377 0.80719537
Xe   0.82441145 0.85866684 0.72099769
Xe   0.06494997 0.25070632 0.71993816
Xe   0.12474985 0.42186582 0.87180698
Xe   0.13849322 0.39286345 0.97925258
Xe   0.75247204 0.94006771 0.22800177
Xe   0.05117716 0.61052090 0.10167746
Xe   0.83685994 0.67706007 0.95341378
Xe   0.20665097 0.90148616 0.41765746
Xe   0.74773401 0.07989994 0.87792820
Xe   0.87085050 0.97185105 0.48516774
Xe   0.00161860 0.76293409 0.92310184
Xe   0.10887287 0.05615068 0.33556506
Xe   0.09952913 0.22552972 0.91508240
Xe   0.41085935 0.86474401 0.04852855
Xe   0.66631842 0.12501472 0.76553857
Xe   0.68122429 0.09324603 0.92176282
Xe   0.13097410 0.32628018 0.05203061
Xe   0.87551504 0.50625366 0.98708063
Xe   0.56480283 0.79111242 0.97817832
Xe   0.72398472 0.63297528 0.07186580
Xe   0.91645086 0.78297526 0.29002354
Xe   0.14640965 0.90623897 0.82190990
Xe   0.06984992 0.42600060 0.31733373
Xe   0.83135670 0.46211007 0.41487640
Xe   0.93525606 0.08737493 0.69003826
Xe   0.96415544 0.74318719 0.37851679
Xe   0.41274279 0.83999407 0.33634490
Xe   0.29521778 0.07610359 0.62984109
Xe   0.89894056 0.62060034 0.30550322
Xe   0.32866392 0.43949383 0.79078871
Xe   0.90223664 0.11461154 0.90147144
Xe   0.86280167 0.25746027 0.99869043
Xe   0.88072395 0.19068569 0.03037081
Xe   0.80484104 0.53282809 0.71889347
Xe   0.21421424 0.91099179 0.11156563
Xe   0.81533253 0.43872866 0.56592113
Xe   0.20570923 0.97597122 0.04690995
Xe   0.04037669 0.96761334 0.59359920
Xe   0.97165978 0.45559153 0.26808417
Xe   0.10869630 0.32326367 0.76009417
Xe   0.30176574 0.02617716 0.01263979
Xe   0.85366392 0.23050325 0.47679517
Xe   0.66125661 0.88775754 0.65438497
Xe   0.75241315 0.97264564 0.11556798
Xe   0.98825783 0.08981754 0.09611537
Xe   0.17798705 0.16811360 0.27842849
Xe   0.07585344 0.89476162 0.66383165
Xe   0.09718952 0.08630076 0.58349031
Xe   0.41926134 0.96262509 0.74955857
Xe   0.96252209 0.09604179 0.38413775
Xe   0.12748675 0.27945852 0.56684816
Xe   0.13818422 0.96883464 0.40800473
Xe   0.04998529 0.05862272 0.08050324
Xe   0.50517952 0.94836664 0.65153033
Xe   0.10007358 0.97176284 0.49902886
Xe   0.81193352 0.59320188 0.57810473
Xe   0.91269869 0.79930842 0.98362273
Xe   0.21406710 0.08268099 0.73382872
Xe   0.12401413 0.05366392 0.54003829
Xe   0.52505887 0.85725427 0.11122719
Xe   0.37286639 0.13038552 0.15325192
Xe   0.78766918 0.14373161 0.48054740
Xe   0.07333726 0.44548264 0.63844907
Xe   0.80335492 0.80938786 0.72903174
Xe   0.10210418 0.60273695 0.97716302
Xe   0.72678041 0.80166274 0.62508827
Xe   0.82157153 0.16188934 0.72917897
Xe   0.83688933 0.11427310 0.33015010
Xe   0.15654796 0.82366103 0.37881106
Xe   0.03809594 0.94205421 0.03727192
Xe   0.69995588 0.20679812 0.85885817
Xe   0.90022075 0.02383755 0.52828133
Xe   0.71818715 0.84821957 0.75850499
Xe   0.04555621 0.55381107 0.56590641
Xe   0.48204824 0.22791348 0.20147146
Xe   0.27282226 0.66597998 0.90158916
Xe   0.89261329 0.03505003 1.00459099
Xe   0.95232493 0.45491466 0.20878458
Xe   0.79177457 0.56568569 0.04496763
Xe   0.07731019 0.32216009 0.81874633
Xe   0.68727195 0.54039139 0.88750732
Xe   0.87024719 0.71881992 0.02482343
Xe   0.09767511 0.20353149 0.82753086
Xe   0.25616539 0.15726899 0.06721601
Xe   0.39604181 0.22541201 0.97277814
Xe   0.54782224 0.11620071 0.27433783
Xe   0.97108597 0.56205118 0.04047969
Xe   0.42825192 0.41322836 0.82579458
Xe   0.44258386 0.21902591 0.16424367
Xe   0.90651852 0.58850795 0.14267217
Xe   0.61927605 0.96221304 0.28069454
Xe   0.86892289 0.90289879 0.60138315
Xe   0.83337259 0.44658625 0.91920251
Xe   0.01520012 0.22344027 0.64565927
Xe   0.81711298 0.19741026 0.57015896
Xe   0.91102117 0.71542084 0.27947322
Xe   0.24783698 0.28079754 0.89024425
Xe   0.60041201 0.58035612 0.04430547
Xe   0.58376986 0.91533256 0.18115067
Xe   0.56353736 0.99039143 0.17035021
Xe   0.74379051 0.01268393 0.32064450
Xe   0.84114188 0.72770751 0.23797823
Xe   0.98712480 0.07073279 0.99496758
Xe   0.20257504 0.01371395 0.02585344
Xe   0.49696878 0.76391995 0.90198648
Xe   0.91542089 0.31137434 0.90754855
Xe   0.94546789 0.43035609 0.88485873
Xe   0.66493523 0.97626549 0.87633902
Xe   0.75812244 0.14779282 0.81487644
Xe   0.80613595 0.72848737 0.15172160
Xe   0.16293408 0.57644200 0.20397294
Xe   0.09779282 0.39412889 0.08703649
Xe   0.48051792 0.37517658 0.19739553
Xe   0.06050618 0.36802530 0.01258093
Xe   0.83974397 0.54292232 0.96689230
Xe   0.55622423 0.55460566 0.87953210
Xe   0.98949385 0.86787814 0.41895235
Xe   0.04670395 0.14508533 0.84774870
Xe   0.82432312 0.01068276 0.39536491
Xe   0.05157446 0.50643027 0.54331958
Xe   0.82472044 0.92861980 0.44954386
Xe   0.90422308 0.77897292 0.72935551
Xe   0.94049442 0.97607416 0.15843144
Xe   0.87065917 0.81920248 0.99882281
Xe   0.05556210 0.06350794 0.32945850
Xe   0.04595350 0.60029429 0.90843141
Xe   0.79014128 0.92658919 0.24632137
Xe   0.87604475 0.36013833 0.18287228
Xe   0.78449088 0.88135666 0.05746027
Xe   0.95360506 0.29017067 0.39674810
Xe   0.69735134 0.05698941 0.29688054
Xe   0.07984108 0.11639199 0.03257799
Xe   0.88786054 0.88513833 0.32332253
Xe   0.49537966 0.11133020 0.84643906
Xe   0.61280167 0.30640084 0.08578575
Xe   0.22268982 0.99423194 0.24901414
Xe   0.38222483 0.79261333 0.01219835
Xe   0.67410243 0.52192467 0.04095056
Xe   0.57504416 0.14889641 0.90101534
Xe   0.02992937 0.49632135 0.80759269
Xe   0.43631548 0.03381401 0.89208359
Xe   0.65684229 0.41968805 0.97133613
Xe   0.06005003 0.66726017 0.06091819
Xe   0.31628901 0.13259269 0.61000592
Xe   0.62149793 0.40603295 0.11306651
Xe   0.80513537 0.13371101 0.66814303
Xe   0.97645676 0.87192470 0.52333730
Xe   0.27554443 0.49298114 0.87382281
Xe   0.79630667 0.57376397 0.26982048
Xe   0.93053263 0.97380811 0.21031490
Xe   0.85275161 0.43321073 0.53428489
Xe   0.12202767 0.19938199 0.00303119
Xe   0.58599180 0.23115067 0.04630665
Xe   0.60937315 0.92004120 0.78534436
Xe   0.49617425 0.11381695 0.19735138
Xe   0.24230428 0.21184520 0.28737494
Xe   0.05902002 0.58368158 0.77501470
Xe   0.07635374 0.58647734 0.52068865
Xe   0.64711595 0.27427897 0.11687757
Xe   0.90335488 0.66266924 0.81917310
Xe   0.69529134 0.92283696 0.56330198
Xe   0.99658620 0.85718071 0.16081518
Xe   0.99028844 0.12138022 0.42451444
Xe   0.60191286 0.86012357 0.72448498
Xe   0.06071218 0.47039437 0.68088579
Xe   0.50413483 0.87043846 0.99677747
Xe   0.36768690 0.53612423 0.86854035
Xe   0.10448793 0.57700121 0.88103294
Xe   0.08466745 0.49773398 0.75114775
Xe   0.27158624 0.08884639 0.41908479
Xe   0.83978808 0.90975577 0.39611536
Xe   0.35544437 0.45412007 0.09779282
Xe   0.64579165 0.14543849 0.95273691
Xe   0.20913774 0.78082693 0.92008537
Xe   0.45513538 0.96550912 0.65216303
Xe   0.90925545 0.11334608 0.73222488
Xe   0.43013537 0.12869336 0.00759270
Xe   0.31140378 0.97311658 0.37186581
Xe   0.09983814 0.91917306 0.54596823
Xe   0.72910535 0.96520013 0.16801059
Xe   0.76970273 0.05682755 0.74399650
Xe   0.20098588 0.10712184 0.20145674
Xe   0.18656562 0.36091819 0.91955560
Xe   0.28181285 0.75339907 0.87057096
Xe   0.53396112 0.28722778 0.86884934
Xe   0.05369335 0.93962622 0.26141849
Xe   0.87998825 0.36530313 0.91650969
Xe   0.87610364 0.50737196 0.66561216
Xe   0.03691878 0.91564161 0.65981460
Xe   0.77845794 0.53095937 0.87811947
Xe   0.56296349 0.32716304 0.92773694
Xe   0.11596528 0.04415833 0.89152443
Xe   0.58120954 0.78837550 0.81160980
Xe   0.76414067 0.21553855 0.98660982
Xe   0.94056803 0.57761919 0.30469394
Xe   0.12048263 0.29471746 0.81140381
Xe   0.90516478 0.86812836 0.06983519
Xe   0.87760448 0.63824308 0.94763100
Xe   0.21047676 0.21321365 0.40489995
Xe   0.37151265 0.99246615 0.61695117
Xe   0.03050324 0.65407592 0.20301647
Xe   0.87954676 0.56881994 0.70119190
Xe   0.97404355 0.29821956 0.14558564
Xe   0.47870809 0.33475575 0.91740733
Xe   0.67096823 0.71614182 0.20395821
Xe   0.78491759 0.54498231 0.98793405
Xe   0.06586227 0.81605357 0.40060329
Xe   0.20044143 0.17292525 0.03544732
Xe   0.30270749 0.48587406 0.82238084
Xe   0.18045910 0.50557685 0.74941140
Xe   0.22542672 0.73843437 0.11671572
Xe   0.75448799 0.33062094 0.78499115
Xe   0.65832847 0.03856681 0.88562393
Xe   0.31344908 0.58263683 0.18079753
Xe   0.72998822 0.21734844 0.48076811
Xe   0.33010596 0.77223366 0.15950559
Xe   0.70944673 0.30943200 0.89549738
Xe   0.61530316 0.07782520 0.00747499
Xe   0.89676279 0.08971454 0.24642436
Xe   0.90640080 0.53240138 0.00606239
Xe   0.32822248 0.06449382 0.87892878
Xe   0.35722485 0.74542379 0.91703939
Xe   0.66974688 0.99343735 0.91836375
Xe   0.90236908 0.66211009 0.38730136
Xe   0.09458505 0.36934963 0.05267804
Xe   0.36864331 0.85515010 0.93811071
Xe   0.15793113 0.79234844 0.88700706
Xe   0.09705710 0.15263391 0.38968512
Xe   0.04664509 0.82236612 0.55439961
Xe   0.35515007 0.77607417 0.08690406
Xe   0.99679220 0.46330196 0.46106532
Xe   0.07653031 0.50575334 0.24605651
Xe   0.92626548 0.11737788 0.29093584
Xe   0.43994999 0.92233664 0.12413184
Xe   0.04610065 0.35307536 0.91121244
Xe   0.06350794 0.91761333 0.95141256
Xe   0.90544438 0.97882587 0.44192174
Xe   0.28658035 0.41517070 0.90648913
Xe   0.85856384 0.86018246 0.77751619
Xe   0.49933788 0.20740142 0.24159801
Xe   0.47663328 0.07402884 0.17788404
Xe   0.17794292 0.18263684 0.46617126
Xe   0.99938196 0.95787227 0.67803121
Xe   0.81823128 0.72374928 0.95020598
Xe   0.35963804 0.62117422 0.94022954
Xe   0.06786345 0.33054739 0.65478224
Xe   0.90420836 0.15607712 0.52728075
Xe   0.55534142 0.03858152 0.21724544
Xe   0.16027075 0.60348737 0.79011184
Xe   0.60145676 0.59567392 0.97021776
Xe   0.42745733 0.08256327 0.09964685
Xe   0.89230430 0.42623600 0.50757796
Xe   0.40462035 0.07967922 0.04664509
Xe   0.20103002 0.83811069 0.61417007
Xe   0.74671870 0.55654800 0.83513832
Xe   0.14696881 0.18889053 0.83649206
Xe   0.76726019 0.97951740 0.88004708
Xe   0.64698356 0.50261921 0.93044442
Xe   0.09012654 0.61934960 0.09162743
Xe   0.01977634 0.22198352 0.68540323
Xe   1.00478232 0.43303415 0.89011186
Xe   0.86294878 0.63786048 0.62951738
Xe   0.18972926 0.20606239 0.92733961
Xe   0.34412888 0.00407593 0.80776930
Xe   0.49317244 0.93914068 0.97619194
Xe   0.21597999 0.18624191 0.15238376
Xe   0.93658036 0.09050912 0.14515892
Xe   0.23272513 0.43422604 0.24192172
Xe   0.13547675 0.15300177 0.28949383
Xe   0.98331368 0.03646262 0.75150084
Xe   0.43560919 0.01864332 0.69917595
Xe   0.42929664 0.66208065 0.84590936
Xe   0.61748087 0.09376104 0.73980284
Xe   0.06221307 0.94514424 0.08418187
Xe   0.04330489 0.88328427 0.43778694
Xe   0.44093585 0.19036198 0.47307241
Xe   0.70728374 0.84231901 1.00144207
Xe   0.99253976 0.36646557 0.78232783
Xe   0.24233373 0.87776631 0.73802233
Xe   0.31930548 0.16062391 0.64537966
Xe   0.00653325 0.52706003 0.51899648
Xe   0.44230431 0.72904652 0.98213661
Xe   0.62607419 0.92160094 0.17029135
Xe   0.79025900 0.68937612 0.04302531
Xe   0.14924955 0.50266331 0.14352560
Xe   0.95828432 0.08020895 0.04898470
Xe   0.20584168 0.84945560 0.38581517
Xe   0.70161861 0.95619488 0.94997054
Xe   0.07098293 0.29445261 0.88719833
Xe   0.96418482 0.11699530 0.72851676
Xe   0.03251913 0.33728665 0.69318718
Xe   0.64593875 0.69686586 0.85220718
Xe   0.60008830 0.72157151 0.90899062
Xe   0.49879339 0.07429370 0.06883461
Xe   0.45669514 0.88506472 0.01511183
Xe   0.77667749 0.06405239 0.80766630
Xe   0.59086227 0.63243085 0.13375515
Xe   0.91811359 0.84027368 0.49801356
Xe   0.07689817 0.90345788 0.14645380
Xe   0.36742201 0.14324602 0.74827844
Xe   0.76914364 0.95111835 0.36805475
Xe   0.72397000 0.22875220 0.92314595
Xe   0.55606240 0.67672163 0.84077400
Xe   0.86216891 0.10328134 0.88107711
Xe   0.72218955 0.86886406 0.08166569
Xe   0.47775161 0.92711890 0.34510005
Xe   0.47254264 0.84754264 0.03837552
Xe   0.08784579 0.44177458 0.20506181
Xe   0.39895529 0.99386406 0.98219544
Xe   0.31418481 0.37889937 0.94181865
Xe   0.92864919 0.27801648 0.33700708
Xe   0.43263686 0.47307241 0.78406417
Xe   0.84908772 0.24957329 0.38056213
Xe   0.00350206 0.01934962 0.80743086
Xe   0.54477632 0.35104474 0.83912599
Xe   0.38413775 0.34658626 0.07764862
Xe   0.80207473 0.03406416 0.88437319
Xe   0.32683933 0.82360214 0.92414659
Xe   0.56773102 0.08490288 0.31577396
Xe   0.99280459 0.11068276 0.81755447
Xe   0.15083873 0.94121546 0.77241027
Xe   0.23836079 0.15208948 0.63943499
Xe   0.65338433 0.33681577 0.01389052
Xe   0.60544437 0.93563861 0.48156270
Xe   0.91520011 0.52320480 0.66238964
Xe   0.45489997 0.88658035 0.89240730
Xe   0.61836374 0.05709241 0.11397881
Xe   0.37641260 0.54629195 0.03971454
Xe   0.03429959 0.65254563 0.86330193
Xe   0.96162444 0.94842559 0.32024720
Xe   0.32296938 0.92945850 0.93069452
Xe   0.49721897 0.83132726 0.18738964
Xe   1.00344324 0.18366687 0.10647440
Xe   0.24891113 0.78338724 0.85816658
Xe   0.25982934 0.87268978 0.02897293
Xe   0.68484402 0.10509124 0.73269570
Xe   0.42733961 0.92906123 0.78559446
Xe   0.01964391 0.68299001 0.51293409
Xe   0.37900236 0.88961154 0.09858740
Xe   0.08663920 0.19545321 0.18946441
Xe   0.87973809 0.32242498 0.20707770
Xe   0.91721600 0.15434079 0.71574455
Xe   0.58968514 0.65796059 0.97728080
Xe   0.89239258 0.55233961 0.17121837
Xe   0.96337551 0.46072692 0.37447026
Xe   0.70407593 0.08799294 0.78828722
Xe   0.08349029 0.59084755 0.82354325
Xe   0.33051795 0.82268983 -.00229547
Xe   0.56394941 0.20370807 0.98936141
Xe   0.44555622 0.96986467 0.13706592
Xe   0.57686871 0.78335786 0.15591525
Xe   0.51299292 0.94337845 0.14465863
Xe   0.00275162 0.26080048 0.69433492
Xe   0.72292525 0.99424660 0.41890818
Xe   0.09170100 0.50565034 0.38334316
Xe   0.95104480 0.37171865 0.87785465
Xe   0.21102118 0.05061801 0.17149794
Xe   0.50947618 0.86158037 0.15712185
Xe   0.85856384 0.37133607 0.61263978
Xe   0.16731901 0.62218952 0.91620070
Xe   0.53759563 0.91188937 0.67966449
Xe   0.60504711 0.83298999 0.89929372
Xe   0.91730434 0.37748677 0.79259861
Xe   0.04083284 0.14773396 0.66562682
Xe   0.82274872 0.15336964 0.80116242
Xe   0.57037967 0.50344324 0.07170395
Xe   0.85450262 0.42906123 0.75907892
Xe   0.66603887 0.14558564 0.86240441
Xe   0.34590936 0.04972043 0.14433490
Xe   0.22171865 0.21761329 0.00342849
Xe   0.85361981 0.77033550 0.16774572
Xe   0.73457921 0.01873161 0.05073573
Xe   0.63084173 0.01281636 0.85417891
Xe   0.31586227 0.88493234 0.02501472
Xe   0.30924076 0.70778400 0.00103002
Xe   0.08062096 0.32689819 0.71018249
Xe   0.91503829 0.60847563 0.00366392
Xe   0.87867862 0.95726901 0.40150088
Xe   0.02189523 0.29751325 0.15052971
Xe   0.72733963 0.05348735 0.09287816
Xe   0.04308417 0.01391995 0.60403180
Xe   0.32614776 0.73365217 0.87558860
Xe   0.08794880 0.01534726 0.91409653
Xe   0.02040906 0.60316366 0.75384051
Xe   0.88613892 0.99710125 0.83198941
Xe   0.03849323 0.74405539 0.89024425
Xe   -.00276633 0.42258683 0.69844025
Xe   0.82903177 0.57953209 0.01421424
Xe   0.21995291 0.02603002 0.80826956
Xe   0.44052383 0.03841966 0.07360212
Xe   0.91430259 0.56265450 0.60850501
Xe   0.99251026 0.55584168 0.73009127
Xe   0.03852266 0.43599176 0.98163623
Xe   0.18660977 0.49565923 0.70189816
Xe   0.64504123 0.00760742 0.06219836
Xe   0.95531189 0.22208653 0.10962331
Xe   0.69877869 0.26040319 0.10681283
Xe   0.42263097 0.93641847 0.64265746
Xe   0.74304008 0.60601825 0.02224838
Xe   0.99246615 0.09381989 0.55601823
Xe   0.90113306 0.36520013 0.11687757
Xe   0.40746027 0.41833434 0.07806062
Xe   0.27501473 0.93331373 0.86344910
Xe   0.40454680 0.35251620 0.99988234
Xe   0.43228370 0.06366981 0.79178929
Xe   0.47216013 0.22564745 0.90504712
Xe   0.38057682 0.90927017 0.91884935
Xe   0.89735138 0.28054738 0.43143025
Xe   0.95286942 0.36060917 0.92725134
Xe   0.83566803 0.59299588 0.87480873
Xe   0.13884638 0.08282813 0.50721014
Xe   0.46640673 0.51774573 0.79233372
Xe   0.91203648 0.15336964 0.76484698
Xe   0.76942319 0.34301060 0.95142728
Xe   0.33363745 0.81246322 0.48507947
Xe   0.72413188 0.54404062 0.94050914
Xe   0.36459681 0.90832841 0.28012067
Xe   0.51406711 0.01680400 0.63967043
Xe   0.96836370 0.05027958 0.56140375
Xe   0.88382870 0.49270162 0.44814596
Xe   0.41212478 0.95135373 0.26989403
Xe   0.19791053 0.50542969 0.91343439
Xe   0.93922901 0.70927018 0.13997939
Xe   0.31383166 0.93574160 0.05367864
Xe   0.85311949 0.85320777 0.33138612
Xe   0.48129782 0.04607122 0.02585344
Xe   0.81920248 0.95981455 0.68241614
Xe   0.07522072 0.14451148 0.06411124
Xe   0.68571222 0.02572101 0.33485875
Xe   0.01976163 0.88306355 0.53385812
Xe   0.74813122 0.11415538 0.06734844
Xe   0.78287226 0.90582699 0.92747205
Xe   0.31319895 0.11706886 0.17310183
Xe   0.21565627 0.03335786 0.70110357
Xe   0.37420541 0.90020603 0.68013537
Xe   0.50005889 0.03452031 0.48175400
Xe   0.93496174 0.08138611 0.81561214
Xe   0.19935256 0.94602710 0.69340789
Xe   0.64208359 0.20924073 0.20369336
Xe   0.82477927 0.11596528 0.76099175
Xe   0.89920545 0.94685107 0.17704532
Xe   0.35773987 0.60957915 0.99608594
Xe   0.92881107 0.78331375 0.45376691
Xe   0.14396705 0.46305180 0.83090049
Xe   0.99387872 0.46418482 0.97757500
Xe   0.77023250 0.86506772 0.28610948
Xe   0.19729252 0.71684813 0.65891701
Xe   0.77739847 0.24802826 0.02666274
Xe   0.89259857 0.98250449 0.00091230
Xe   0.74115658 0.13290170 0.14896998
Xe   0.72976756 0.99426132 0.52988523
Xe   0.55211890 0.70438492 0.88062096
Xe   0.77467626 0.15386993 0.96052092
Xe   0.15610653 0.97132140 0.19677752
Xe   0.18168041 0.00484108 0.28638905
Xe   0.93481457 0.66430253 0.07695703
Xe   0.44374633 0.46486166 0.04763096
Xe   0.59071511 0.88053268 0.89003825
Xe   0.34171572 0.82533842 0.86159509
Xe   0.85223663 0.72293997 0.61914361
Xe   0.71183050 0.89905828 0.65360504
Xe   0.03610948 0.38743380 0.78090054
Xe   0.91409653 0.33425546 0.94243670
Xe   0.35422307 0.95542967 0.01109476
Xe   0.23109183 0.29346675 0.38618305
Xe   0.89196587 0.80072099 0.47520599
Xe   0.13844909 0.17748676 0.10247204
Xe   0.34629196 0.78469688 0.96028548
Xe   0.49081811 0.95276636 0.39333433
Xe   0.16699529 0.51727486 0.65027958
Xe   0.20924073 0.01160977 0.33176869
Xe   0.91868746 0.37082109 0.63609475
Xe   0.20253091 0.91359627 0.73740435
Xe   0.73212188 0.77633899 0.02551501
Xe   0.06761330 0.27675104 0.15300177
Xe   0.62401414 0.88531488 0.83855206
Xe   0.48057681 0.13736022 0.96389049
Xe   0.23406415 0.18578577 0.85929960
Xe   0.00866686 0.04663037 0.09939671
Xe   0.88047385 0.54995584 0.94736618
Xe   0.93853742 0.04663037 0.91425836
Xe   0.63652146 0.94408482 0.74097997
Xe   0.56009418 0.13471159 0.79118603
Xe   0.59187758 0.00668040 0.62786931
Xe   0.42249852 0.91599470 0.20815186
Xe   0.19568864 0.56469983 0.65854919
Xe   0.95748967 0.53000295 0.64796937
Xe   0.53775752 0.85482639 0.20462038
Xe   0.81403768 0.66219831 0.64829308
Xe   0.15829901 0.65782815 0.14014126
Xe   0.39639494 0.40928489 0.13135669
Xe   0.45369336 0.89120072 0.06904061
Xe   0.82569158 0.44014126 0.62966454
Xe   0.46620071 0.18349029 0.51809889
Xe   0.13301942 0.84696883 0.28974396
Xe   0.27519128 0.76983523 0.07644203
Xe   0.51695114 0.22878164 0.99190706
Xe   0.40157446 0.03730135 0.54876399
Xe   0.63441736 0.11499412 0.91403770
Xe   0.06266922 0.72121835 0.48880225
Xe   0.54658622 0.07095350 0.46421427
Xe   0.17163037 0.78794879 0.98362273
Xe   0.35247207 0.15176575 0.10768099
Xe   0.66695118 0.16879046 0.71890819
Xe   0.68602121 0.60788703 0.00447322
Xe   0.14571807 0.80620956 0.33131254
Xe   0.92876691 0.47651559 0.31742203
Xe   0.87429368 0.52583873 0.29786640
Xe   0.55931431 0.32814893 0.97642732
Xe   0.73097408 0.14305474 0.44561508
Xe   0.75665098 0.60147142 0.83840495
Xe   0.37020308 0.87483811 0.85535610
Xe   0.07110064 0.66106534 0.15779871
Xe   0.97792816 0.29512948 0.56169808
Xe   0.09080341 0.53931725 0.76293409
Xe   0.21084462 0.08972926 0.38056213
Xe   0.14979400 0.13120954 0.48447615
Xe   0.07728075 0.51761329 0.71137434
Xe   0.10036787 0.39826369 0.16303708
Xe   0.25219247 0.83612424 0.87583876
Xe   0.10697469 0.94967628 0.91080046
Xe   0.22579460 0.93750739 0.57411712
Xe   0.47892880 0.98696291 0.45295763
Xe   0.94749850 0.54030317 0.83840495
Xe   0.77480870 0.01927604 0.17037964
Xe   0.74014127 0.24699822 0.85303122
Xe   0.86133021 0.13522659 0.01827546
Xe   0.98871398 0.90962332 0.67801648
Xe   0.03947911 0.29339316 0.82925248
Xe   0.17567687 0.95962340 0.37870806
Xe   0.64161271 0.11778988 0.11859918
Xe   0.07700118 0.51783407 0.57819307
Xe   0.13741907 0.96993822 0.72554445
Xe   0.86599469 0.68148911 0.65693057
Xe   0.11645085 0.86337548 0.86119777
Xe   0.85464984 0.82301354 0.44792524
Xe   0.45273691 0.19315773 0.95931429
Xe   0.53703654 0.67127723 0.97873747
Xe   0.99493819 0.76015306 0.78534436
Xe   0.01517069 0.41203651 0.06246321
Xe   0.87819308 0.74317247 0.97298414
Xe   0.59723371 0.20417894 0.87760448
Xe   0.74308419 0.91347855 0.98153329
Xe   0.81003529 0.08170983 0.86598003
Xe   0.94929373 0.80222189 0.32960564
Xe   0.43886110 0.93063563 0.05007358
Xe   0.13129783 0.93700707 0.29187760
Xe   0.46113893 0.02071807 0.95604765
Xe   0.83872867 0.08112125 0.79936731
Xe   0.34118599 0.04524720 0.69226021
Xe   0.84312832 0.26383168 0.44306946
Xe   0.12236610 0.95378166 0.02664803
Xe   0.08878752 0.07165980 0.48909652
Xe   0.79065633 0.66134489 0.17430842
Xe   0.65447325 0.97797233 0.82747203
Xe   0.67770749 0.13390230 0.90672451
Xe   0.09286345 0.02398470 0.46808419
Xe   0.88497651 0.90144205 0.68346089
Xe   0.60344321 0.77817833 0.02057092
Xe   0.27720720 0.12945852 0.35289878
Xe   0.91162449 0.90657741 0.95278102
Xe   0.01396410 0.84224540 0.37394056
Xe   0.82813418 0.64065629 0.98949385
Xe   0.87165982 0.39523250 0.81553859
Xe   0.76752502 0.01743673 0.08678634
Xe   0.92913479 0.94805771 0.27020308
Xe   0.13799295 0.16893761 0.35902002
Xe   0.95587111 0.58381402 0.25175104
Xe   0.92867863 0.72923779 0.85741615
Xe   0.26450855 0.11475868 0.98853737
Xe   0.66514122 0.06166863 0.55092704
Xe   0.00884344 0.60734260 0.36159506
Xe   0.21050619 0.12279283 0.05144203
Xe   0.82120365 0.77838433 0.37517658
Xe   0.50481164 0.21986464 0.14623308
Xe   0.80066216 0.11489111 0.80079460
Xe   0.78552091 0.96633309 0.08193055
Xe   0.78836077 0.49336374 0.16874632
Xe   0.42432314 0.89203948 0.85887289
Xe   0.65648913 0.06215421 0.77464688
Xe   0.84258389 0.66970277 0.02757504
Xe   0.25098586 0.96144789 0.23032667
Xe   0.12316068 0.71876103 0.88240141
Xe   0.04526192 0.80763686 0.35665098
Xe   0.52062976 0.04127428 0.04256916
Xe   0.83353442 0.97544146 0.24089171
Xe   0.92486757 0.81252211 0.66711307
Xe   0.01734844 0.65813714 0.38353443
Xe   0.61899650 0.04302531 0.59292227
Xe   0.97981161 0.25744557 0.42145380
Xe   0.86236018 0.80331075 0.27697176
Xe   0.22405827 0.84970570 0.83332843
Xe   0.96609771 0.81531787 0.49343732
Xe   0.00198646 0.03388758 0.16352266
Xe   0.01447911 0.22550030 0.45538554
Xe   0.35810772 0.11002061 0.31188935
Xe   0.27944377 0.31314009 0.94009715
Xe   0.88237196 0.01883461 0.71971744
Xe   0.14458506 0.07901707 0.74617422
Xe   0.15697470 0.89193648 0.67286640
Xe   0.31043261 0.18488817 0.39239258
Xe   0.13912596 0.56575930 0.91982049
Xe   0.96721607 0.91971749 0.40834314
Xe   0.80704826 0.96547967 0.91366976
Xe   0.18187168 0.37725133 0.46480283
Xe   0.55104476 0.91781932 0.01387581
Xe   0.44626251 0.17061508 0.70988816
Xe   0.56921715 0.03627133 0.94857264
Xe   0.20086816 0.86293411 0.03110654
Xe   0.12775162 0.62552977 0.62115949
Xe   0.89383459 0.63165092 0.44621837
Xe   0.91472930 0.42706004 0.17757504
Xe   0.79698348 0.51364040 0.76096237
Xe   0.93610948 0.96160972 0.40462035
Xe   0.28591818 0.14195116 0.40344319
Xe   0.25007358 0.54885226 0.85164803
Xe   0.26499411 0.79299587 0.91056502
Xe   0.75400239 0.24181873 0.06258093
Xe   0.78653622 0.70434082 0.08917010
Xe   0.40200117 0.52482343 0.91006476
Xe   0.33015010 0.20406121 0.69022959
Xe   0.92807531 0.54068571 0.90154505
Xe   0.13581517 0.44749853 0.14677753
Xe   0.96755439 0.33940554 0.00612125
Xe   0.93223953 0.97891408 0.31006476
Xe   0.12970865 0.87308711 0.40485579
Xe   0.14311360 0.90445852 0.58256328
Xe   0.80388463 0.89546794 0.86419952
Xe   0.65744555 0.88585931 0.19615951
Xe   0.87603003 0.78434378 0.94405532
Xe   0.45682755 0.94192171 0.25026485
Xe   0.95072103 0.70473808 0.55947614
Xe   0.21749559 0.47096822 0.88961154
Xe   0.39142144 0.95766628 0.21343438
Xe   0.23939081 0.02380812 0.47046793
Xe   0.36539143 0.47544146 0.00395821
Xe   0.80985874 0.96689230 0.73067987
Xe   0.63437319 0.01450853 0.45304590
Xe   0.91378754 0.87120366 0.57579458
Xe   0.98663926 0.78677166 0.11440554
Xe   0.93260741 0.51468509 0.73660982
Xe   0.94896996 0.24337848 0.84183341
Xe   0.65225130 0.79969102 0.09295174
Xe   0.21500884 0.48996469 0.13120954
Xe   0.87861979 0.86759865 0.42021778
Xe   0.57207179 0.13874339 0.22527958
Xe   0.02945851 0.15157445 0.05475280
Xe   0.55453211 0.91892290 0.78934669
Xe   0.96540612 0.61399353 0.01921719
Xe   0.09565921 0.27576515 0.92848736
Xe   0.14721896 0.22224839 0.76948202
Xe   0.88855213 0.46347851 0.73840493
Xe   0.87401414 0.08705121 0.76211005
Xe   0.78766918 0.93688935 0.05214832
Xe   0.09520306 0.18381400 0.09793997
Xe   0.89961743 0.81770158 0.41106534
Xe   0.11542083 0.49418774 0.50482637
Xe   0.32395527 0.32476455 0.96973222
Xe   0.49967629 0.90082407 0.22848734
Xe   0.95077986 0.72937024 0.51858449
Xe   0.36648029 0.59153914 0.81043261
Xe   0.82135081 0.95182455 0.76951152
Xe   0.87298411 0.13706592 0.48156270
Xe   0.00623896 0.42486757 0.94150972
Xe   0.69935256 0.83892000 0.18936139
Xe   0.32283697 0.92573571 0.34052384
Xe   0.98662454 0.08271042 0.15875514
Xe   0.80264860 0.89671868 0.48265153
Xe   0.90307534 0.70136845 0.42763391
Xe   0.73484403 0.50815189 0.90283990
Xe   0.53905237 0.53406411 0.17963508
Xe   0.27879637 0.82576513 0.24757211
Xe   0.89935255 0.99005294 0.89942616
Xe   0.21733373 0.32366100 0.92775160
Xe   0.30185404 0.95423776 0.23213655
Xe   0.05011772 0.05183932 0.98563862
Xe   0.83666867 0.36530313 0.86717188
Xe   0.93968511 0.50884348 0.38497648
Xe   0.44402590 0.32594171 0.00244261
Xe   0.18658035 0.68316662 0.08454973
Xe   0.98048860 0.44480577 0.83939081
Xe   0.15609182 0.40089759 0.50759268
Xe   0.96206599 0.71777517 0.33956739
Xe   0.28231314 0.99911714 0.22299883
Xe   0.76780462 0.82538259 0.80089760
Xe   0.09045026 0.58187169 0.69083285
Xe   0.45887285 0.02185109 0.19178930
Xe   0.04562978 0.20288405 0.60306066
Xe   0.60984403 0.14095056 0.07201295
Xe   0.12658916 0.95819604 0.36319897
Xe   0.21829018 0.92551500 0.20063274
Xe   0.53350502 0.93594760 0.50838727
Xe   0.43675691 0.79766041 0.90999115
Xe   0.46496472 0.01762802 0.11967334
Xe   0.44440848 0.86926132 0.81537670
Xe   0.52906126 0.85581225 0.49626255
Xe   0.58812541 0.20273690 0.12026192
Xe   0.71246320 0.05213361 0.75570929
Xe   0.99939668 0.81414068 0.30450267
Xe   0.31773102 0.19432020 0.03909653
Xe   0.15204532 0.55653322 0.14448205
Xe   0.32964981 0.32473513 0.86308122
Xe   0.02932608 0.95094174 0.22416128
Xe   0.88175398 0.08042967 0.84100944
Xe   0.72060037 0.94665980 0.43978813
Xe   0.78965569 0.48834610 0.97953206
Xe   0.82367569 0.35060328 0.19782226
Xe   0.28559446 0.05145674 0.33569747
Xe   0.82731020 0.11131548 0.51717186
Xe   0.69651264 0.11781931 0.09100942
Xe   0.26390523 0.91074163 0.99462920
Xe   0.08025309 0.27105650 0.82750148
Xe   0.91340494 0.66508245 0.93301946
Xe   0.00628311 0.78175396 0.67404354
Xe   0.97885525 0.30875516 0.69668925
Xe   0.04233373 0.71521485 0.29514420
Xe   0.46805474 0.07517658 0.89908773
Xe   0.46792230 0.97613299 0.88254857
Xe   0.94208360 0.54693937 0.42989993
Xe   0.43378457 0.99117130 0.21927606
Xe   0.98328424 0.49879339 0.35703355
Xe   0.02257210 0.48450556 0.29932311
Xe   0.17832549 0.81371397 0.71574455
Xe   0.73530018 0.10002943 0.91765743
Xe   0.84611535 0.12324898 0.56534731
Xe   0.00334020 0.38187170 0.22857565
Xe   0.20726898 0.59123015 0.02550030
Xe   0.62732488 0.94726312 0.85673928
Xe   0.64560038 0.91533256 0.09699824
Xe   0.91244847 0.93819892 0.90620953
Xe   0.28472632 1.00079465 0.72021776
Xe   0.99972045 0.21440554 0.60285467
Xe   0.06442025 0.92957622 0.83640379
Xe   0.09173043 0.02770748 0.06615656
Xe   0.47398472 1.00114775 0.68004709
Xe   0.83737493 0.80597407 0.03790465
Xe   0.13232784 0.11734844 0.10812242
Xe   0.62842852 0.67473513 0.02728075
Xe   0.23477046 0.87351382 0.98563862
Xe   0.04362860 0.23100354 0.02632431
Xe   0.07274868 0.44153914 0.91858447
Xe   0.14567392 0.15629782 0.51809889
Xe   0.34739551 0.84337848 0.40052971
Xe   0.83244562 0.49062681 0.95132434
Xe   0.71430254 0.44052383 0.94390821
Xe   0.03997940 0.27064449 0.08294585
Xe   0.85379636 0.42455858 0.34745440
Xe   0.85332549 0.88880223 0.19042084
Xe   1.00200117 0.59854323 0.68793404
Xe   0.88299000 0.97417605 0.06409653
Xe   0.11525898 0.19919069 0.71537673
Xe   0.90919662 0.96052092 0.35083875
Xe   0.35928488 0.39854324 0.97087997
Xe   0.38453501 0.01487640 0.13902296
Xe   0.78777224 0.35147145 0.15464979
Xe   0.18871395 0.84192169 0.98147434
Xe   0.75523841 0.86141849 0.15379634
Xe   0.16339023 0.47401413 0.35039729
Xe   0.07514714 0.64433491 0.31237492
Xe   0.72472042 0.66397882 0.96502358
Xe   0.95320779 0.03226898 0.08624191
Xe   0.61002064 0.07266039 0.86534727
Xe   0.32121837 0.47173336 0.05270747
Xe   0.96489108 0.41867274 0.16350795
Xe   0.84713066 0.90385520 0.64293700
Xe   0.60306066 0.97115952 0.16325781
Xe   0.13563862 0.25253090 0.62090933
Xe   0.60666567 0.36968806 0.08761036
Xe   0.27470571 0.95261919 0.08749264
Xe   0.99705714 0.23120955 0.18818422
Xe   0.90700412 0.25809300 0.04736610
Xe   0.80522364 0.87861979 0.76311064
Xe   0.52725136 0.99873459 0.54278988
Xe   0.18440259 0.86243379 0.09184815
Xe   0.15055916 0.84015596 0.21241908
Xe   0.35906416 0.38371101 0.92669219
Xe   0.12960565 0.82589757 0.72783995
Xe   0.98418194 0.55404651 0.16572984
Xe   0.87520599 0.82794291 0.66109478
Xe   0.91634786 0.11703943 0.85270751
Xe   0.97264564 0.89028841 0.23306356
Xe   0.19704238 0.96490580 0.47929668
Xe   0.06096233 0.22919364 0.80800468
Xe   0.00460565 0.92973810 0.58933192
Xe   0.70038259 0.10581224 0.03800765
Xe   0.49239260 0.89217186 0.85949087
Xe   0.78418189 0.92291057 0.74205416
Xe   0.74137729 0.04055327 0.39036196
Xe   0.13173926 0.51439083 0.71411121
Xe   0.97502947 0.25217777 0.29536492
Xe   0.97302824 0.66191882 0.04793996
Xe   0.87856096 0.23738964 0.26411125
Xe   0.40569451 0.75291348 0.92048264
Xe   0.63761038 0.23706593 0.15831371
Xe   0.01693643 0.26028547 0.54139197
Xe   0.88219541 0.69401121 0.10974102
Xe   0.26930547 0.49006769 0.05189817
Xe   0.35420838 0.05575338 0.96698064
Xe   0.75722480 0.80122131 0.34140670
Xe   0.81921721 0.81720126 0.98499119
Xe   0.00869629 0.58402002 0.24741024
Xe   0.98637432 0.72279280 0.80457622
Xe   0.95890230 0.00044144 0.25291348
Xe   0.15954974 0.93454975 0.96236020
Xe   0.54885226 0.66434664 0.93376988
Xe   0.89133316 0.89284879 0.16509712
Xe   0.05915244 0.14093585 0.35363451
Xe   0.10854915 0.32536787 0.45757800
Xe   0.52157152 0.23363744 0.94749850
Xe   0.29092112 0.80354625 0.96572977
Xe   0.88335788 0.89454091 0.87619191
Xe   0.09437905 0.27396998 0.78119481
Xe   0.87186581 0.31939375 0.52267510
Xe   0.64386404 0.12920836 0.01809888
Xe   0.15401708 0.60048556 0.00189818
Xe   0.17616245 0.64355505 0.78503537
Xe   0.57741320 0.70044148 0.95133901
Xe   0.05706298 0.54979396 0.64671868
Xe   0.84348148 0.61578870 0.77917892
Xe   0.10982931 0.24779283 0.70406121
Xe   0.16771631 0.25712186 0.51833433
Xe   0.79343736 0.92326367 0.79648328
Xe   0.88608003 0.29199529 0.55610651
Xe   0.80306065 0.64046502 0.31740728
Xe   0.97629488 0.49757209 0.30420837
Xe   0.76798117 0.32657447 0.11740730
Xe   0.47516185 0.56113887 0.02963508
Xe   0.44567394 0.65051502 0.02243967
Xe   0.78890520 0.45066217 0.94175982
Xe   0.57959092 0.06646557 0.35064745
Xe   0.26806948 0.24052384 0.02224838
Xe   0.87430841 0.68553561 0.98791939
Xe   0.55132431 0.22847264 0.78672749
Xe   0.12825191 0.06140377 0.95610648
Xe   0.68106240 0.29487935 0.99869043
Xe   0.29252499 0.76358157 0.99243671
Xe   0.03580047 0.77230728 0.46478811
Xe   0.94030315 0.07600059 0.75950563
Xe   0.40466452 0.83975869 0.60776931
Xe   0.82757509 0.44557092 0.17251325
Xe   0.90918183 0.14995585 0.02285168
Xe   0.37266040 0.94863158 0.06849618
Xe   0.24201001 0.87024719 0.30815184
Xe   0.16150677 0.23409359 0.40335494
Xe   0.85537082 0.99052387 0.68499118
Xe   0.98715419 0.75088286 0.02600059
Xe   0.08556504 0.47786936 0.96509707
Xe   0.08655091 0.83313715 0.89869040
Xe   0.95175105 0.03709535 0.14671865
Xe   0.11923189 0.56983525 0.23406415
Xe   0.95422310 0.86702472 0.48062092
Xe   0.18418188 0.22057092 0.53727192
Xe   0.49121541 0.15256034 0.24142142
Xe   0.96274281 0.18678635 0.92048264
Xe   0.10597411 0.60019130 0.78154796
Xe   0.74114186 0.79165685 0.08001766
Xe   0.86724544 0.95179516 0.91075635
Xe   0.86143321 0.86188936 0.27823719
Xe   0.20954974 0.38272515 0.88184226
Xe   0.39529136 0.59021485 0.90066218
Xe   0.97346967 0.18029724 0.07227781
Xe   0.39601237 0.08119483 0.58591819
Xe   0.73924369 0.71009415 0.92966455
Xe   0.31711301 0.97151268 0.97944385
Xe   0.76787817 0.92580932 0.11767217
Xe   0.10944673 0.88385820 0.02642731
Xe   0.60051501 0.66208065 0.82678044
Xe   0.83944970 0.89270157 0.69601238
Xe   0.92008537 0.26584756 0.99396712
Xe   0.83942026 0.17182167 0.63228375
Xe   0.14611536 0.01856975 0.79277515
Xe   0.07697175 0.96243376 -.00010300
Xe   0.40618011 0.75834316 0.80345792
Xe   0.85929960 0.18677163 0.98930258
Xe   0.18872868 0.86453801 0.64886701
Xe   0.49343732 0.97196883 0.11197764
Xe   0.50429666 0.37082109 0.00693055
Xe   0.19265746 0.78674221 0.84999996
Xe   0.72410238 0.82982635 0.29212773
Xe   0.65835786 0.30175105 0.94795465
Xe   0.27319011 0.45612124 0.08669806
Xe   0.17834020 0.30019128 0.37738374
Xe   0.22364627 0.03185697 0.65395820
Xe   0.22136551 0.98584461 0.37505886
Xe   0.05072101 0.27948794 0.92795759
Xe   0.28457916 0.16396409 0.48268101
Xe   0.06584755 0.29615951 0.57093877
Xe   0.01222778 0.68072397 0.16602413
Xe   0.90974104 0.04677752 0.67948794
Xe   0.78900820 0.20191289 0.52766335
Xe   0.14838140 0.44663039 0.49892586
Xe   0.95100057 0.84852856 0.21927606
Xe   0.07457328 0.77962041 0.60454679
Xe   0.93927312 0.43603590 0.97324896
Xe   0.01216892 0.48619777 0.40473810
Xe   0.04849912 0.94698358 0.43374044
Xe   0.11877575 0.94523251 0.81893760
Xe   0.99133319 0.27255741 0.63297528
Xe   0.85228080 0.39870512 0.08094467
Xe   0.07074750 0.61346382 0.62875223
Xe   0.82956147 0.92975283 0.50191289
Xe   0.63917011 0.07392585 0.38743380
Xe   0.89454091 0.05404650 0.41049147
Xe   0.87454385 0.93953800 0.28460857
Xe   0.10407593 0.82093883 0.60136843
Xe   0.11612714 0.79867572 0.22697176
Xe   0.87857562 0.41197762 0.63899350
Xe   0.11478812 0.94972044 0.18703650
Xe   0.52628016 0.91518539 0.83072400
Xe   0.05454679 0.37336668 0.83593291
Xe   0.12460271 0.01150677 0.02422013
Xe   0.06496468 0.40267804 0.45025018
Xe   0.58340198 0.87876695 0.24565920
Xe   0.88366687 0.63949382 0.14006770
Xe   0.03937611 0.85281050 0.02273396
Xe   0.09620366 0.75294286 0.00709241
Xe   0.78749269 0.88400531 0.43254855
Xe   0.06762802 0.31461155 0.95223659
Xe   0.70086819 0.98156273 0.33603591
Xe   0.65654796 0.09842554 0.26748088
Xe   0.18181284 0.24068570 0.63454974
Xe   0.70008826 0.65133899 0.04111242
Xe   0.24214242 0.70180988 0.01056504
Xe   0.43204826 0.20622426 0.68515301
Xe   0.27317542 0.28350502 0.85183930
Xe   0.64374632 0.89208359 0.60286933
Xe   0.04065627 0.32552972 0.86394942
Xe   0.42536789 0.93887579 0.89424658
Xe   0.15370807 0.59886700 0.73753679
Xe   0.90397292 0.52474982 0.86714244
Xe   0.39371690 0.98944962 0.08082696
Xe   0.31896704 0.03659506 0.94336373
Xe   0.00994703 0.13778694 0.75381106
Xe   0.35170689 0.81480283 0.12811948
Xe   0.55027956 0.90526778 0.20715126
Xe   0.29855800 0.84514421 0.87903178
Xe   0.36871690 0.86065334 0.25509125
Xe   0.94558567 0.47261626 0.41693643
Xe   0.74312830 0.98755151 0.92803121
Xe   0.13215126 0.58774281 0.84092110
Xe   0.56096238 0.95576817 0.13816951
Xe   0.99286342 0.97641265 0.72483814
Xe   0.06955563 0.26730430 0.52510303
Xe   0.79832256 0.57302827 0.86040318
Xe   0.97577995 0.43260741 0.41645086
Xe   0.21917306 0.60609180 0.78597707
Xe   0.69081819 0.02679517 0.52683932
Xe   0.13909653 0.35582694 0.92772222
Xe   0.56954092 0.95492941 0.19839612
Xe   0.05912302 0.51099181 0.19630665
Xe   0.93912601 0.51097709 0.78240144
Xe   0.08705121 0.70188349 0.90919662
Xe   0.49589464 0.20447323 0.82117420
Xe   0.88969982 0.23793408 0.80069160
Xe   0.49127430 0.95039725 0.30570924
Xe   0.35707769 0.32885522 0.11999705
Xe   0.85787225 0.84354031 0.87550032
Xe   0.98378462 0.81255150 0.44286346
Xe   0.39530605 0.99991179 0.25588581
Xe   0.58410829 0.05322248 0.03460860
Xe   0.23978810 0.00429665 0.20635669
Xe   0.50222188 0.91683340 0.54507065
Xe   0.87133610 0.42535314 0.14127427
Xe   0.08772808 0.99536490 0.81274283
Xe   0.60999119 0.10297234 0.30494410
Xe   0.27051207 0.96093291 0.40128016
Xe   0.30286935 0.08775751 0.83802235
Xe   0.44402590 0.56227195 0.12657446
Xe   0.81082994 0.97370505 0.85885817
Xe   0.98341674 0.68296057 0.11909947
Xe   0.97017360 0.68038553 0.78268105
Xe   0.04148028 0.06734844 0.80410534
Xe   0.13022366 0.65319306 0.76265454
Xe   0.24727781 0.15070629 0.44295174
Xe   0.02429370 0.80934370 0.04174514
Xe   0.70921135 0.24755739 0.04804297
Xe   0.90132433 0.09679224 0.44177458
Xe   0.07801648 0.79165685 0.03855209
Xe   0.02361683 0.02086521 0.29833725
Xe   0.20766628 0.01667157 0.07335197
Xe   0.96402293 0.41998234 0.93416715
Xe   0.76581812 0.18771337 0.91555327
Xe   0.80547386 0.62396997 0.20837258
Xe   0.00946145 0.32055622 0.07369041
Xe   0.30108887 0.10804885 0.31896704
Xe   0.36927605 0.96250743 0.58522660
Xe   0.72258681 0.73403472 0.05685697
Xe   0.33912596 0.17395526 0.97060031
Xe   0.53032666 0.10567982 0.16125661
Xe   0.75760740 0.39208359 0.93727189
Xe   0.26434669 0.96605355 0.15007357
Xe   0.00139788 0.56914365 0.06909947
Xe   0.24061212 0.63872868 0.21213949
Xe   0.00597410 0.79574746 0.22776634
Xe   0.55479693 0.12535316 0.07655974
Xe   0.20005886 0.14561507 0.24071512
Xe   0.87149799 0.93082696 0.96311069
Xe   0.90927017 0.25244263 0.16753973
Xe   0.69571805 0.44214246 0.07588287
Xe   0.97881103 0.77341086 0.40369335
Xe   0.02295468 0.72441143 0.13425544
Xe   0.50943202 0.63015008 0.91949677
Xe   0.40732783 0.08646262 0.96191883
Xe   0.10949088 0.88640380 0.32414654
Xe   0.97747207 0.00737198 0.05029429
Xe   0.27647144 0.06856974 0.06361095
Xe   0.17483814 0.43012068 0.64917600
Xe   0.84982347 0.09393761 0.93543261
Xe   0.03902296 0.16203649 0.53666866
Xe   0.06606827 0.09203944 0.88090056
Xe   0.90429670 0.13419658 0.22632430
Xe   0.12430841 0.85828429 0.15862271
Xe   0.79184812 0.11447911 0.71705413
Xe   0.17789876 0.61458206 0.95644498
Xe   0.90623897 0.10576810 0.04097999
Xe   0.85095650 0.39933786 0.99323130
Xe   0.65729839 0.31177163 0.20729841
Xe   0.67383754 0.21792232 0.48013538
Xe   0.30030900 0.89908773 0.76907003
Xe   0.75420839 0.82729548 0.09926427
Xe   0.51856977 0.82442611 0.74867570
Xe   0.90994704 0.92124784 0.41608301
Xe   0.03908181 0.03806651 0.03646262
Xe   0.95061797 0.22179224 0.02967922
Xe   0.11493526 0.17323425 0.24638022
Xe   0.52966452 0.25610656 0.82545614
Xe   0.31883460 0.47254264 0.86583287
Xe   0.72778106 0.33427015 0.81904060
Xe   0.09788111 0.14106828 0.33275458
Xe   0.11789288 0.57037967 0.08950854
Xe   0.61450857 0.12585345 0.58087111
Xe   0.70286930 0.99429077 0.03343143
Xe   0.25606239 0.34879342 0.78967041
Xe   0.24994114 0.58400530 0.07104179
Xe   0.05662154 0.03172454 0.17358741
Xe   0.23148912 0.12502943 0.77760452
Xe   0.45473808 0.79699826 0.10438493
Xe   0.93231314 0.97020304 0.85359031
Xe   0.55101532 0.28825781 0.95320779
Xe   0.63815480 0.11698058 0.46318424
Xe   0.26687756 0.40734255 0.96143317
Xe   0.17598587 1.00142729 0.88491762
Xe   0.07423484 0.15073574 0.11798116
Xe   0.46131548 0.41640672 0.93428487
Xe   0.80694526 0.03299000 0.21459682
Xe   0.09792525 0.98251921 0.27550030
Xe   0.09120071 0.94379050 0.13060625
Xe   0.93975872 0.12104179 0.41508240
Xe   0.76165396 0.21165392 0.84304005
Xe   0.16216892 0.52760446 0.81097704
Xe   0.15623897 0.78144497 0.81134492
Xe   0.81995291 0.25616539 0.95773983
Xe   0.13428488 0.26758388 0.24537964
Xe   0.99496758 0.92863452 0.72101235
Xe   0.85005885 0.27644205 0.77545619
Xe   0.05559153 0.46748087 0.87754565
Xe   0.18880224 0.06316952 0.08092996
Xe   0.88482928 0.44039142 0.31656858
Xe   0.20929959 0.63940549 0.11720130
Xe   0.31113893 0.20797528 0.47788408
Xe   0.23219541 0.16500883 0.26799586
Xe   0.47904649 0.79337847 0.37274870
Xe   0.96302235 0.79386407 0.25975573
Xe   0.62174809 0.15797529 0.68736023
Xe   0.19733667 0.11787816 0.00379635
Xe   0.98385817 0.39433491 0.47293994
Xe   0.98646265 0.37208652 0.07644203
Xe   0.16233078 0.19810183 0.23588876
Xe   0.46836376 0.91509712 0.65323722
Xe   0.09330489 0.24055326 0.22386698
Xe   0.20225133 0.82706004 0.43677163
Xe   0.89336377 0.45100060 0.42595646
Xe   0.29484990 0.85607713 0.37853149
Xe   0.14680696 0.97661865 0.32995880
Xe   0.23616832 0.82395524 0.99826372
Xe   0.86278689 0.35100061 0.98416722
Xe   0.02407298 0.61487639 0.16627428
Xe   0.85450262 0.97473508 0.74097997
Xe   0.22183637 0.28394645 0.84205419
Xe   0.81932020 0.90323716 0.07261624
Xe   0.57163036 0.98023832 0.94240725
Xe   0.86933494 0.95657742 0.86128604
Xe   0.74632138 0.44924957 0.90709239
Xe   0.47258684 0.83928782 0.08918481
Xe   0.07870807 0.85826957 0.44671866
Xe   0.71287519 0.12962037 0.40612125
Xe   0.22575045 0.24969099 0.56608301
Xe   0.17033550 0.30014715 0.47345495
Xe   0.91574460 0.40846089 0.12008535
Xe   0.81759858 0.11110948 0.00130959
Xe   0.15278105 0.25108886 0.90644497
Xe   0.10517952 0.89698350 0.94673336
Xe   0.38521191 0.03763979 0.79539436
Xe   0.14848439 0.82299882 0.95982939
Xe   0.28151855 0.98017949 0.63669807
Xe   0.66509712 0.42077693 0.02834020
Xe   0.56932020 0.98943490 0.06711300
Xe   0.96586227 0.19432020 0.29919070
Xe   0.01406710 0.25178045 0.23962624
Xe   0.05531195 0.61912888 0.44152445
Xe   0.10946145 0.85994709 0.24356975
Xe   0.17882578 0.12645674 0.36834905
Xe   0.42645675 0.08321071 0.91007948
Xe   0.23993525 0.68038553 0.94465858
Xe   0.81909949 0.32357270 0.85688645
Xe   0.97257215 0.22152738 0.71951145
Xe   0.46726015 0.05086816 0.83694822
Xe   0.08967039 0.94189233 0.30965275
Xe   0.52804595 0.99504125 0.03422602
Xe   0.02204238 0.62823719 0.24321659
Xe   0.80051500 0.08590347 0.92610359
Xe   0.08188640 0.06411124 0.93666863
Xe   0.63285756 0.67369044 0.94751322
Xe   0.96247798 0.75438493 0.17367570
Xe   0.03122425 0.24443790 0.97039431
Xe   0.82653034 0.26911417 0.88184226
Xe   0.91509712 0.51227194 0.95417893
Xe   0.09412890 0.36868745 0.95341378
Xe   0.37567687 0.13418189 0.24693938
Xe   0.55706298 0.61756921 0.94855791
Xe   0.24720423 0.74371690 0.95704830
Xe   0.95978516 0.88282818 0.72926724
Xe   0.98899353 0.02800177 0.27354327
Xe   0.53677166 0.44296646 0.13406415
Xe   0.10334020 0.50709242 0.85934377
Xe   0.25451738 0.19780754 0.03228370
Xe   0.17195410 0.03457916 0.84162742
Xe   0.37321955 0.34484991 0.96839315
Xe   0.99432015 0.05829900 0.42401412
Xe   0.91671574 0.92036492 0.22636846
Xe   0.69730723 0.16459683 1.00153041
Xe   0.81249261 0.63182753 0.04582107
Xe   0.09969100 0.23506474 0.06005003
Xe   0.68631548 0.19810183 0.24602707
Xe   0.01381695 0.23631547 0.75208944
Xe   0.44801354 0.82061511 0.17767805
Xe   0.94898462 0.87600058 0.43135670
Xe   0.05768099 0.82270455 0.97842854
Xe   0.55504709 0.83596236 0.80782819
Xe   0.32401413 0.87363160 0.97045326
Xe   0.15999117 0.57179224 0.61829019
Xe   0.10444380 0.68537372 0.96238965
Xe   0.95164812 0.27745736 0.75029433
Xe   0.93284285 0.13175398 0.08054738
Xe   0.16699529 0.60400236 0.16261035
Xe   0.44462919 0.22168922 0.84590936
Xe   0.96243376 0.13693349 0.89075929
Xe   0.36578870 0.78612417 0.89551210
Xe   0.23506474 0.61328727 0.98334318
Xe   0.15492937 0.88733083 0.30442905
Xe   0.07714833 0.98989117 0.14184815
Xe   0.26723072 0.01664214 0.90800470
Xe   0.53627133 0.12900236 0.93369627
Xe   0.15643024 0.18821366 0.16698058
Xe   0.84080338 0.50638616 0.27158624
Xe   0.54452622 0.93546206 0.06773102
Xe   0.03299000 0.67647147 0.24707182
Xe   0.97077692 0.79702765 0.81886405
Xe   0.36425838 0.74577689 0.12869336
Xe   0.25523838 -.00045615 0.11041790
Xe   0.27657446 0.86559743 0.93968511
Xe   0.83044440 0.52731019 0.92426425
Xe   0.11964390 0.32711890 0.95532674
Xe   0.09857269 0.98663926 0.34543848
Xe   0.29361391 0.07213067 0.17417599
Xe   0.57154208 0.80111831 0.05307534
Xe   0.87341082 0.63268101 0.02457328
Xe   0.55462039 0.16063862 0.97163033
Xe   0.55070627 0.88544732 0.98291647
Xe   0.01352266 0.75874043 0.26105061
Xe   0.10463508 0.22786933 0.16773102
Xe   0.82686877 0.53837556 0.87610364
Xe   0.94489402 0.56291938 0.71215421
Xe   0.18406415 0.88691878 0.86584753
Xe   0.72857565 0.15916717 0.03325485
Xe   0.05494408 0.85515010 0.92948794
Xe   0.00544438 0.79632139 0.17850205
Xe   0.77676576 0.58419657 0.22051206
Xe   0.07842848 0.62664807 0.04440847
Xe   0.44064155 0.17201294 0.91859919
Xe   0.60264862 0.17811948 0.03996469
Xe   0.16263980 0.77139497 0.68347561
Xe   0.32891408 0.85256034 0.82199824
Xe   0.19741026 0.50238371 0.84773397
Xe   0.68056208 0.71015304 0.95351684
Xe   0.30476752 0.77014422 0.82017362
Xe   0.47589758 0.44474691 0.07485285
Xe   0.47957620 0.30824015 0.03887581
Xe   0.34760153 0.68109179 0.12585345
Xe   0.73298997 0.41475868 0.13819894
Xe   0.91649503 0.31726018 0.84761626
Xe   0.36141849 0.00990288 0.39065626
Xe   0.13790464 0.25470865 0.02324897
Xe   0.87595642 0.05865215 0.96377283
Xe   0.18638906 0.06009417 0.44752795
Xe   0.38406417 0.83931726 0.02625074
Xe   0.93616837 0.55254561 0.75982934
Xe   0.47220424 0.05495880 0.76649499
Xe   0.71650970 0.15821071 0.83540314
Xe   0.96155095 0.00990288 0.98397589
Xe   0.18334314 0.24844027 0.46418482
Xe   0.47792819 0.95020598 0.93007654
Xe   0.09895527 0.09395233 0.07236610
Xe   0.08837552 0.71269870 0.19863154
Xe   0.94193643 0.98287225 0.92550027
Xe   0.17099765 0.54792523 0.04642437
Xe   0.88095939 0.05628311 0.56942320
Xe   0.32427898 0.08449088 0.49064159
Xe   0.25778398 0.90740144 0.12154209
Xe   0.79729253 0.18677163 0.15706298
Xe   0.10072101 0.50829899 0.44071513
Xe   0.60985875 0.95381105 0.89992642
Xe   0.08479989 0.99183345 0.19127427
Xe   0.97113013 0.20076516 0.84649795
Xe   0.94195116 0.73621249 0.69246620
Xe   0.29124483 0.88684523 0.89989704
Xe   0.04841083 0.83893466 0.18067981
Xe   0.64034730 0.39221603 0.15826957
Xe   0.80590057 0.57807535 0.91284579
Xe   0.32170397 0.00598882 0.89699823
Xe   0.75345796 0.83519715 0.42872277
Xe   0.33680105 0.03791936 0.18858153
Xe   0.81459683 0.79963213 0.89864624
Xe   0.27319011 0.68156272 0.05186875
Xe   0.56038845 0.89105356 0.62728077
Xe   0.16572984 0.00993231 0.72036493
Xe   0.08441731 0.47282225 0.54323131
Xe   0.92828131 0.63565338 0.25036785
Xe   0.29655680 0.81255150 0.84779286
Xe   0.75002944 0.06605356 0.95868158
Xe   0.99349618 0.87716305 0.56728959
Xe   0.25254562 0.74109775 0.16440554
Xe   0.59499705 0.71358150 0.83946437
Xe   0.27363157 0.90769571 0.72770751
Xe   0.13468216 0.63894939 0.96909946
Xe   0.88003236 0.35878459 0.65251619
Xe   0.67214543 0.68616831 0.07355798
Xe   0.84407002 0.21141848 0.81349325
Xe   0.64567393 0.88276929 0.26728961
Xe   0.66695118 0.29785168 0.86191881
Xe   0.06287522 0.05874044 0.62167454
Xe   0.93056214 0.80545908 0.21321365
Xe   0.64777809 0.66889346 0.79552680
Xe   0.07015892 0.75116247 0.14698352
Xe   0.72969395 0.09432019 0.56188935
Xe   0.16055033 0.43609476 0.60841674
Xe   0.08914068 0.37227780 0.52994406
Xe   0.96818715 0.87630963 0.37997353
Xe   0.14496763 0.92508829 0.33341673
Xe   0.67744267 0.00876987 0.38431430
Xe   0.33290172 0.95741618 0.78780168
Xe   0.96789289 0.77135080 0.21559742
Xe   0.94514424 0.04277516 0.25489995
Xe   0.62633908 0.91230136 0.04763096
Xe   0.23029724 0.12195409 0.55750442
Xe   0.99593878 0.15267806 0.85359031
Xe   0.00314891 0.08101825 0.67316073
Xe   0.12180694 0.76865804 0.97102702
Xe   0.01003531 0.84983814 0.20422307
Xe   0.37270454 0.50154501 0.04974985
Xe   0.61152148 0.97864926 0.71896702
Xe   0.00547381 0.57057095 0.84626251
Xe   0.04726309 0.90464979 0.33081225
Xe   -.00569453 0.13547675 0.98474097
Xe   0.80698937 0.18950853 0.66639197
Xe   0.75005883 0.42957622 0.45975575
Xe   0.25091231 0.15647440 0.19533549
Xe   0.79635078 0.91383165 0.38622719
Xe   0.27241024 0.97482342 0.93578577
Xe   0.58819896 0.89234847 0.12879635
Xe   0.04748381 0.81728959 0.60285467
Xe   0.88510889 0.94371694 0.80398762
Xe   0.39907300 0.01578870 0.92995882
Xe   0.94121546 0.07224838 0.19807240
Xe   0.81222779 0.49788108 0.85314894
Xe   0.53886110 0.18840495 0.69577694
Xe   1.00044143 0.48419657 0.53950858
Xe   0.08925839 0.28577104 0.73335785
Xe   0.11374338 0.77018833 0.06237492
Xe   0.60258979 0.98886114 0.53410828
Xe   0.15759270 0.70020598 0.81531787
Xe   0.94632131 0.15704827 0.18006182
Xe   0.22616245 0.73871392 0.79486465
Xe   0.15832843 0.19202472 0.31269863
Xe   0.95557684 0.88843435 0.07279282
Xe   0.52726603 0.45721012 0.84817541
Xe   0.95285457 0.10585638 1.00082397
Xe   0.39134786 0.90067685 0.82158625
Xe   0.39446735 0.41147736 0.00016186
Xe   0.59351087 0.26324308 0.09752796
Xe   0.89901412 0.90657741 0.10668040
Xe   0.39196587 0.10116245 0.48967040
Xe   0.82611835 0.77401417 0.80950558
Xe   0.16467039 0.13416716 0.02105650
Xe   0.98528546 0.77525020 0.34003824
Xe   0.48811066 0.38884640 0.05987345
Xe   0.09245145 0.39020011 0.35094175
Xe   0.34376103 0.08469688 0.23324014
Xe   0.06830489 0.02363155 0.78731608
Xe   0.65451735 0.14092113 0.42629489
Xe   0.55208945 0.05966745 0.68821365
Xe   0.08491760 0.24793997 0.01571513
Xe   0.20766628 0.87716305 0.50707769
Xe   0.94361389 0.27894351 0.45332551
Xe   0.60008830 0.87603003 0.07608888
Xe   0.92716300 0.45219249 0.81771630
Xe   0.90417898 0.75338435 0.78909653
Xe   0.24221602 0.21444969 0.92098296
Xe   0.67241025 0.74746913 0.84782225
Xe   0.02841377 0.89567393 0.23428488
Xe   0.21692172 0.96627426 0.93269575
Xe   0.95569450 0.56408179 0.39005297
Xe   0.95300174 0.03946439 0.80261922
Xe   0.32308713 0.13656563 0.35279575
Xe   0.87129194 0.14577693 0.82170391
Xe   0.20659211 0.02956151 0.94901419
Xe   0.19345203 0.08032667 0.93045914
Xe   0.58568281 0.88978815 0.48237202
Xe   0.06135963 0.20258975 0.36848146
Xe   0.35598883 -.00082401 0.95900536
Xe   0.21631843 0.68930256 0.49949971
Xe   0.98797822 0.67308712 0.31175691
Xe   0.81718659 0.49227491 0.21652444
Xe   0.90613598 0.03294585 0.77748680
Xe   0.92461747 0.67301351 0.28627133
Xe   0.74437904 0.48868451 0.02648617
Xe   0.30339906 0.96243376 0.89128900
Xe   0.12828135 0.12474985 0.55359036
Xe   0.96462625 0.55485582 0.88341671
Xe   0.02876692 0.16549441 0.26030019
Xe   0.46166864 0.76397878 0.94480580
Xe   0.00557681 0.91795170 0.99296647
Xe   0.72349912 0.34690994 0.86508244
Xe   0.79027373 0.99598289 0.37227780
Xe   0.99630666 0.61024135 0.93362278
Xe   0.95210421 0.12461742 0.33334315
Xe   0.20529723 0.08889052 0.52345502
Xe   0.01306651 0.24501176 0.91358155
Xe   0.43577105 0.18865509 0.26446438
Xe   0.79070044 0.46758389 0.12695704
Xe   0.35782814 0.85211891 0.58094466
Xe   0.79130369 0.97152740 0.81202179
Xe   0.10684226 0.71063858 0.80353153
Xe   0.10313419 0.58803713 0.73527080
Xe   0.03213655 0.82925248 0.43374044
Xe   0.08120954 0.86275750 0.15644497
Xe   0.32708946 0.29274574 0.13872868
Xe   0.47856089 0.90625370 0.14211302
Xe   0.04340789 0.38315186 0.18563862
Xe   0.02914950 0.65675396 0.12878163
Xe   0.67605942 0.85900527 0.84230429
Xe   0.80329603 0.85094178 0.45542967
Xe   0.90572399 0.27592704 0.76159507
Xe   0.31459680 0.49904358 0.08984697
Xe   0.56343436 0.82763386 0.67273402
Xe   0.99364334 0.39863154 0.82288110
Xe   0.17429371 0.68493235 0.20928487
Xe   0.83013541 0.33294585 0.07007063
Xe   0.38106239 0.10228076 0.88134199
Xe   1.00098586 0.25713655 0.03793408
Xe   0.87554443 0.69966155 0.36932021
Xe   0.97554439 0.43135670 0.12108593
Xe   0.71980578 0.50242794 0.07079164
Xe   0.31833434 0.16278693 0.07118893
Xe   0.43559447 0.31384638 0.82152742
Xe   0.30929959 0.59042084 0.85531193
Xe   0.98871398 0.73025310 0.60573870
Xe   0.15822543 0.82445556 0.76879048
Xe   0.55251616 0.50251621 0.11909947
Xe   0.80815190 0.12123308 0.20868158
Xe   0.45328134 0.50579756 0.91621542
Xe   0.97036493 0.19426133 0.18406415
Xe   0.07922307 0.73602122 0.65359032
Xe   0.21452326 0.03237198 0.86440551
Xe   0.01397881 0.80957919 0.93994999
Xe   0.71411121 0.61933494 0.19103885
Xe   0.38756624 0.90601826 0.77123308
Xe   0.96475875 0.84114188 0.11156563
Xe   0.13353443 0.50484109 0.00934373
Xe   0.00863743 0.35703355 0.02321954
Xe   0.07642731 0.24841084 0.95899051
Xe   0.71530312 0.00876987 0.10094173
Xe   0.37938496 0.06743673 0.40063271
Xe   0.09571807 0.32819307 0.01072690
Xe   0.26984993 0.62080634 0.75328135
Xe   0.02323426 0.88905239 0.17591231
Xe   0.93722779 0.66771626 0.99077398
Xe   0.05055916 0.12095351 0.39886698
Xe   0.33443204 0.09022955 0.06247793
Xe   0.80420834 0.21767217 0.37469101
Xe   0.99652737 0.10175103 0.31761330
Xe   0.99648327 0.28637433 0.90676868
Xe   0.80787230 0.21642143 0.99583584
Xe   0.73048854 0.84096527 0.70959389
Xe   0.87923777 0.90554738 0.38034138
Xe   0.22686875 0.59287816 0.87466162
Xe   0.45737198 0.90245736 0.30394351
Xe   0.87386698 0.27601531 0.64973509
Xe   0.79857272 0.98147434 0.26584756
Xe   0.96865809 0.53374040 0.54186291
Xe   0.34507063 0.63578576 0.87226307
Xe   0.81748086 0.82382286 0.85122132
Xe   0.61078572 0.97956151 0.98045915
Xe   0.67473513 0.27794290 0.15507650
Xe   0.77679521 0.17233667 0.56826073
Xe   0.04788111 0.41553855 0.87703061
Xe   0.67285168 0.55172157 0.08407887
Xe   0.16171277 0.88329899 0.94308424
Xe   0.99003822 0.59582108 0.30494410
Xe   0.04963214 0.01244850 0.22092408
Xe   0.93210715 0.87295467 0.33026782
Xe   0.69665980 0.92033553 0.74863154
Xe   0.00697469 0.27614775 0.75398767
Xe   0.40994704 0.78250444 0.87051207
Xe   0.28728664 0.12878163 0.93353444
Xe   0.89421719 0.40357563 0.37192464
Xe   0.84683639 0.32894349 0.92314595
Xe   0.95612121 0.35238376 0.45797530
Xe   0.99226016 0.54077399 0.32157153
Xe   0.77395529 0.75425249 0.08800765
Xe   0.01708358 0.05879930 0.94339317
Xe   0.27742791 0.89618891 0.36303711
Xe   0.12732489 0.27136549 0.31524426
Xe   0.65579754 0.83115071 0.02442613
Xe   0.83160681 0.49058270 0.74624783
Xe   0.75283986 0.90903473 0.41143322
Xe   0.33143026 0.91444969 0.87608892
Xe   0.01996763 0.47635376 0.75232488
Xe   0.46879047 0.81171280 0.95598882
Xe   0.23310772 0.17402884 0.52639788
Xe   0.12897293 0.31225723 0.40407595
Xe   0.22630960 0.05487051 0.90094173
Xe   0.35996175 0.55866683 0.98713946
Xe   0.04852855 0.87728077 0.29265743
Xe   0.09795468 0.98899353 0.42486757
Xe   0.86202180 0.76539141 0.73584461
Xe   0.51277220 0.10810772 0.03450559
Xe   0.68106240 0.73565334 0.04393761
Xe   0.94930840 0.56915832 0.93063563
Xe   0.27545613 0.10132431 0.76511186
Xe   0.39281929 0.97195411 0.90167749
Xe   0.13351972 0.26387581 0.74919075
Xe   0.77186584 0.80438495 0.01758387
Xe   0.22151266 0.06625956 0.04780754
Xe   0.97767806 0.02320483 0.94158334
Xe   0.83297533 0.00859329 0.48528546
Xe   0.79504120 0.31177163 0.06403767
Xe   0.88393170 0.03206298 0.92632431
Xe   0.75918192 0.86634785 0.79480577
Xe   0.49542376 0.09621836 0.94196588
Xe   0.18125367 0.95900536 0.58706594
Xe   0.20335491 0.21106534 0.06561213
Xe   0.44043553 0.75342846 0.88660979
Xe   0.69869041 0.74095058 0.99137729
Xe   0.71037376 0.55826956 0.04145085
Xe   0.00668040 0.50520897 0.45434082
Xe   0.12779577 0.78066510 0.57811952
Xe   0.25154501 0.08665391 0.31598002
Xe   0.27688345 0.84361392 0.65631253
Xe   0.49077401 0.90392882 0.27313125
Xe   0.03649205 0.48178342 0.35971159
Xe   0.55279577 0.01730430 0.99162740
Xe   0.63047379 0.95445848 0.20357564
Xe   0.87185109 0.82408774 0.51858449
Xe   0.79008240 0.40849030 0.99217188
Xe   0.11190406 0.04153914 0.64944088
Xe   0.08265156 0.56625962 0.94193643
Xe   0.80225134 0.36723074 0.11194820
Xe   0.44111243 0.13113596 0.77283698
Xe   0.54145086 0.00438493 0.90968215
Xe   0.25220716 0.80378163 0.79896998
Xe   0.13178341 0.82260156 0.67758977
Xe   0.48978812 0.63262212 0.16833431
Xe   0.11961447 0.11561213 0.30105942
Xe   0.94437903 0.46330196 0.06798116
Xe   0.64429075 0.06721601 0.96487635
Xe   0.77371985 0.06546498 0.19228958
Xe   0.68469691 0.08253384 0.22392584
Xe   0.20691584 0.83293110 0.23132725
Xe   0.94078875 0.82913476 0.06090347
Xe   0.22984108 0.78023839 0.12938493
Xe   0.11480283 0.47638318 0.17769277
Xe   0.77992940 0.00431136 0.23247498
Xe   0.42383757 0.88568282 0.94156855
Xe   0.04852855 0.62675107 0.68553561
Xe   0.76895231 0.13271043 0.53109181
Xe   0.12586816 0.52133608 0.62912011
Xe   0.19724838 0.32199824 0.43044439
Xe   0.77700120 0.77517658 0.87582403
Xe   0.86952621 0.53981757 0.46021187
Xe   0.06015303 0.64955860 0.51814306
Xe   0.84845495 0.32099766 0.74998534
Xe   0.30138317 0.01618599 0.07008535
Xe   0.95431143 0.78518248 0.01508240
Xe   0.57029134 0.07679518 0.14927900
Xe   0.90854913 0.40120661 0.25491464
Xe   0.02776633 0.30523837 0.23231313
Xe   0.96652442 0.26193351 0.08404944
Xe   0.90844613 0.07719246 0.30476752
Xe   0.30325189 0.82096821 0.13344616
Xe   0.04042084 0.06361095 0.13201883
Xe   0.11979105 0.93100351 0.45893171
Xe   0.00801942 0.80207473 0.98875809
Xe   0.48390234 0.98582995 0.25005886
Xe   0.14142142 0.91156566 0.13931726
Xe   0.31271338 0.94405532 0.14346674
Xe   0.65404654 0.95020598 0.78856683
Xe   0.35309005 0.56439084 0.07992937
Xe   0.51199234 0.05462036 0.91108006
Xe   0.95120656 0.90413481 0.99498242
Xe   0.83706594 0.03908181 0.83415246
Xe   0.79611540 0.13271043 0.92220426
Xe   0.01578870 0.34111241 0.19304003
Xe   0.04936728 0.66384643 0.72458798
Xe   0.81737787 0.26829016 0.01130076
Xe   0.89665979 0.54889643 0.74651271
Xe   0.96664214 0.79813129 0.06942319
Xe   0.63157743 0.19974986 0.98035610
Xe   0.97057092 0.50463504 0.69473219
Xe   0.79761624 0.22266039 0.18933196
Xe   0.94480580 0.82863450 0.42020306
Xe   0.51169807 0.69479102 0.11209535
Xe   0.57298410 0.95027959 0.25382578
Xe   0.99683642 0.72344029 0.31312537
Xe   0.76487637 0.93681580 0.44281930
Xe   0.23103297 0.61384636 0.16461155
Xe   0.71908474 0.87473512 0.43922898
Xe   0.16062391 0.92010003 0.09077398
Xe   0.91333139 0.04302531 0.06050618
Xe   0.25459093 0.10963803 0.04280459
Xe   0.25782812 0.96196294 0.59418780
Xe   0.96954089 0.13752207 0.13687463
Xe   0.20785756 0.20676869 0.81862861
Xe   0.25940260 0.07105651 0.66419953
Xe   0.33683050 0.92945850 0.75038254
Xe   0.00768099 0.97210127 0.01549441
Xe   0.49420246 0.79203945 0.60057384
Xe   0.05924073 0.94127429 0.50563568
Xe   0.73090053 0.08531489 0.39511478
Xe   0.27804592 0.33981755 0.03282813
Xe   0.55164808 0.15974103 0.12351383
Xe   0.25918189 1.00048554 0.31159508
Xe   0.01929076 0.77351385 0.31090346
Xe   0.90535611 0.09852855 0.94102412
Xe   0.42263097 0.93067986 0.70391411
Xe   0.89504123 0.28582990 0.69184816
Xe   0.63082695 0.02317540 0.29017067
Xe   0.70996177 0.72867864 0.12111536
Xe   0.14317244 0.80272222 0.27984110
Xe   0.77176285 0.13858153 0.17917894
Xe   0.61015302 0.02907593 0.97087997
Xe   0.86190408 0.21450853 0.35682756
Xe   0.05876986 0.47039437 0.41032961
Xe   0.41356683 0.90151560 0.54467332
Xe   0.81119782 0.25784287 0.14125957
Xe   0.95672452 0.63196003 0.96171284
Xe   0.40020600 0.23942025 0.19036198
Xe   0.20837258 0.09529135 0.87167448
Xe   0.78215128 0.88066506 0.57129198
Xe   0.14886698 0.34724841 0.44120070
Xe   0.91852564 0.86252207 0.67386699
Xe   0.85929960 0.19963214 0.42719248
Xe   0.94181865 0.72511774 0.64206886
Xe   0.14028841 0.83833140 0.01964391
Xe   0.38038552 0.95301646 0.96308118
Xe   0.91334611 0.28512362 0.49022958
Xe   0.02979694 0.51776046 0.23752208
Xe   0.30547380 0.32204238 0.17875220
Xe   0.58447617 0.15314892 0.71936435
Xe   0.42339611 0.12002648 0.11846674
Xe   0.26777518 0.87121838 0.24824898
Xe   0.03421130 0.96884936 0.97183633
Xe   0.21917306 0.05537081 0.23231313
Xe   0.05982931 0.87224841 0.78909653
Xe   0.03153325 0.41748089 0.73737490
Xe   0.67302823 0.25041202 1.00622427
Xe   0.89234847 0.07474985 0.12551500
Xe   0.07252796 0.02770748 0.54624784
Xe   0.03040024 0.99823421 0.12113009
Xe   0.79562980 0.51921719 0.02466157
Xe   0.87511772 0.28790465 0.07588287
Xe   0.92190993 0.49424663 0.58738965
Xe   0.65847558 0.97371989 0.66234553
Xe   0.82969397 0.72096825 0.73855209
Xe   0.44717482 0.00567981 0.83684522
Xe   0.66531783 0.78477049 0.87995881
Xe   0.47881109 0.02781048 0.35307536
Xe   0.88541788 0.19554149 0.46896705
Xe   0.90372276 0.92014420 0.56614184
Xe   0.39446735 0.45342851 0.04361389
Xe   0.08856680 0.96219832 0.86517072
Xe   0.30095643 -.00101530 0.17293997
Xe   0.02951736 0.09049441 0.61814302
Xe   0.82764864 0.80261922 0.55145675
Xe   0.60192764 0.77004123 0.07604474
Xe   0.07030606 0.34362862 0.08218069
Xe   0.32171866 0.53822833 0.15526780
Xe   0.34833726 0.90928483 0.95479697
Xe   0.97967929 0.01440553 0.46078578
Xe   0.36244851 0.89735138 0.00467922
Xe   0.15553266 0.04211301 0.25519425
Xe   0.87276340 0.80416423 0.20760742
Xe   0.71344912 0.71169806 0.16717187
Xe   0.87658918 0.57043844 0.31040317
Xe   0.21674514 0.60281044 0.92783993
Xe   0.70906419 0.79128903 0.84474695
Xe   0.32567686 0.19208358 0.58753681
Xe   0.62029135 0.20735727 0.92912012
Xe   0.11798116 0.14757210 0.19951442
Xe   0.99237788 0.78749269 0.55638611
Xe   0.05813714 0.52080637 0.78535908
Xe   0.14517364 0.57764864 0.67558855
Xe   0.31118307 0.66013831 0.97686875
Xe   0.57504416 0.90479696 0.83840495
Xe   0.67182171 0.52861977 0.97366095
Xe   0.09502649 0.83887577 0.51343441
Xe   0.18059152 0.40613598 0.95650381
Xe   0.40781343 0.63293111 0.98989117
Xe   0.05092702 0.28612420 0.69262803
Xe   0.30801943 0.40869629 0.99348146
Xe   0.23889053 0.15336964 0.00104473
Xe   0.02657446 0.89805770 0.75506181
Xe   0.28075337 0.20607711 0.07074750
Xe   0.14320189 0.61236024 0.29780754
Xe   0.19276045 0.37731019 0.04508534
Xe   0.99718952 0.40698943 0.29318717
Xe   0.91709828 0.01247793 0.58092993
Xe   0.25918189 0.91675991 0.27517658
Xe   0.20921130 0.68793404 0.75176573
Xe   0.01458211 0.94486457 0.39439377
Xe   0.74261332 0.87255740 0.59427607
Xe   0.77963513 0.03376986 0.29265743
Xe   0.18593290 0.68560922 0.87650090
Xe   0.22545615 0.71355212 0.70473808
Xe   0.00397293 0.27838436 0.10005886
Xe   0.49636555 0.64271635 0.01887875
Xe   0.98034137 0.65314895 0.25781342
Xe   0.11877575 0.30289876 0.28232786
Xe   0.02934079 0.76122725 0.82065922
Xe   0.17220424 0.41786346 0.05766627
Xe   0.96200705 0.69699824 0.18206298
Xe   0.06489111 0.22035022 0.88828725
Xe   0.90816659 0.20005886 0.80899060
Xe   0.88229841 0.35801941 0.26552385
Xe   0.07510301 0.46714243 0.27909064
Xe   0.50010300 0.54632133 0.78750736
Xe   0.48694819 0.14718953 0.40695998
Xe   0.03081224 0.96999705 0.34726310
Xe   0.05660683 0.31381693 0.29068568
Xe   0.03310771 0.81196290 0.89568865
Xe   0.76695120 0.49608594 0.94299585
Xe   0.77111536 0.09676281 0.67373455
Xe   0.77516186 0.20048559 0.48556507
Xe   0.96262509 0.76871693 0.97563273
Xe   0.12420542 0.39308417 0.55545908
Xe   0.23023838 0.04729253 0.11728959
Xe   0.52573574 0.18999411 0.50525314
Xe   0.96312541 0.64273101 0.83324015
Xe   0.94879347 0.82173342 0.88118011
Xe   0.08072396 0.51443493 0.01316951
Xe   0.86208069 0.27964979 0.17951736
Xe   0.94058269 0.23034139 0.47283694
Xe   0.47339612 0.55314893 0.17625073
Xe   0.49168631 0.61125666 0.05828429
Xe   0.11758388 0.87513244 0.64371693
Xe   0.17494114 0.60670984 0.43811065
Xe   0.13421130 0.34957328 0.50338435
Xe   0.69348150 0.88344616 0.79967630
Xe   0.22180696 0.32723662 0.01437610
Xe   0.99271625 0.82608885 0.85503238
Xe   0.19749853 0.58868450 0.29596823
Xe   1.00492930 0.85306060 0.73775750
Xe   0.99532074 0.92479402 0.18738964
Xe   0.88290173 0.29724839 0.00541495
Xe   0.97548556 0.75406122 0.86339021
Xe   0.79117131 0.89408475 0.69746912
Xe   0.74683642 0.84660095 0.19885227
Xe   0.50381106 0.42823720 0.20698941
Xe   0.31721601 0.15282519 0.43384343
Xe   0.84665984 0.31547970 0.38275456
Xe   0.13778694 0.40372279 0.74470276
Xe   0.28097409 0.06103590 0.91391999
Xe   0.92957622 0.98959678 0.80812240
Xe   0.10570924 0.63319606 0.68185699
Xe   0.26971748 0.23419659 0.87360209
Xe   0.92938495 0.60361975 0.74904352
Xe   0.72429371 0.96478814 0.29770455
Xe   0.81776047 0.98869926 0.95419365
Xe   0.49958798 0.19087699 0.95665097
Xe   0.79090643 0.73510891 0.90748972
Xe   0.18175398 0.09576222 0.47036493
Xe   0.08477046 0.08432902 0.53123897
Xe   0.38198939 0.12463214 0.07001177
Xe   0.48460856 0.39970571 0.15748970
Xe   0.17404355 0.66137433 0.57449973
Xe   0.69426131 0.75011772 0.93307829
Xe   0.71648031 0.89053857 0.03516775
Xe   0.00250147 0.29383460 0.31144792
Xe   0.23359330 0.87723660 0.89951444
Xe   0.86856973 0.20865215 0.15982932
Xe   0.75253087 0.00847557 0.81361097
Xe   0.91072690 0.86024135 0.11461154
Xe   0.84278989 0.42966452 0.28037083
Xe   0.79031783 0.45347264 0.02190995
Xe   0.84966159 0.87386698 0.98493230
Xe   0.63955271 0.38903767 0.92174804
Xe   0.79998529 0.91315478 0.64869040
Xe   0.06213950 0.46263978 0.77867860
Xe   0.03354914 0.09835197 0.75884342
Xe   0.64187759 0.89811653 0.74727780
Xe   0.67045319 0.72276342 0.89071512
Xe   0.71600944 0.86603886 0.36537668
Xe   0.71540612 0.32645676 0.03555032
Xe   0.96450847 0.80869627 0.16436139
Xe   0.53724253 0.10793114 0.11539141
Xe   0.99098003 0.38098884 0.98187166
Xe   0.03304885 0.74930841 0.10334020
Xe   0.91072690 0.55500293 0.81469983
Xe   0.94354033 0.77736908 0.75186878
Xe   0.15116245 0.90559149 0.03379929
Xe   0.28173926 0.26680401 0.92171866
Xe   0.19009711 0.40500295 0.77405828
Xe   0.73699236 0.94336373 0.54283398
Xe   0.95985878 0.04742496 0.65413481
Xe   0.61400825 0.22383755 0.59917599
Xe   0.76497942 0.53063565 0.79942614
Xe   0.11041790 0.54315770 0.81144792
Xe   0.79643911 0.66436142 0.08680106
Xe   0.62221897 0.86827546 0.51246321
Xe   0.60014713 0.09590936 0.05756327
Xe   0.75819600 0.11681872 0.48497647
Xe   0.89367276 0.39707181 0.99864620
Xe   0.62742788 0.95256037 0.02853149
Xe   0.41889349 0.92572099 0.59587991
Xe   0.98697758 0.30516481 0.03243084
Xe   0.44654208 0.08940554 0.85841674
Xe   0.58608007 0.09383461 0.83073866
Xe   0.99255449 0.65537083 0.86057979
Xe   0.54393762 0.88955265 0.43103296
Xe   0.34810182 0.43841967 0.03045909
Xe   0.93660980 0.73128313 0.05404650
Xe   0.00054444 0.55356091 0.66792232
Xe   0.72859037 0.20238376 0.56511182
Xe   0.98877281 0.52086520 0.84305471
Xe   0.07298411 0.69989699 0.75584167
Xe   0.90675402 0.39446735 0.30091232
Xe   0.05941731 0.58556503 0.47373456
Xe   0.34286347 -.00026486 0.12628016
Xe   0.70634192 0.32332253 0.94192171
Xe   0.18222484 0.81169802 0.93925840
Xe   0.61241907 0.84623307 0.55032372
Xe   0.39359918 0.98634487 0.03310771
Xe   0.48535904 0.02959093 0.87962037
Xe   0.09093584 0.47801650 0.13753679
Xe   0.06917305 0.56612712 0.11293408
Xe   0.24820483 0.13147441 0.72797233
Xe   0.62536788 0.15023543 0.18453503
Xe   0.04961742 0.27711889 0.78587407
Xe   0.52792817 0.06599470 0.12604474
Xe   0.56572980 0.97420543 0.49208361
Xe   0.59512949 0.85632724 0.65045619
Xe   0.78240144 0.00389935 0.91870219
Xe   0.13525604 0.85904944 0.06540612
Xe   0.42520601 0.17010006 0.60723960
Xe   0.92472047 0.75685698 0.32920834
Xe   0.31826073 0.78424072 0.88796353
Xe   0.03986169 0.01692172 0.36024132
Xe   0.27173337 0.12235138 0.64327544
Xe   0.28843436 0.11962920 0.08706592
Xe   0.86673045 0.46912891 0.78366685
Xe   0.09470277 0.63775748 0.54306948
Xe   0.48413774 0.90822542 0.93375516
Xe   0.96169811 0.39636552 0.20425250
Xe   0.16056503 0.19409947 0.03410830
Xe   0.59695411 0.78837550 0.37304297
Xe   0.79695410 0.34582108 0.27854621
Xe   0.68299001 0.93616837 0.12728074
Xe   0.66759861 0.97931141 0.23894939
Xe   0.55467921 0.23284286 0.12427899
Xe   0.41452324 0.21608301 0.88641852
Xe   0.07029135 0.88677162 0.08769865
Xe   0.89710122 0.20020601 0.10612125
Xe   0.99668926 0.54960275 0.57822251
Xe   0.50904948 0.07511771 0.29379046
Xe   0.03856681 0.93809593 0.16415539
Xe   0.53547674 0.26721600 0.17321955
Xe   0.77791351 0.73240137 0.99211305
Xe   0.16806945 0.54361391 0.72472042
Xe   0.16009417 0.31255150 0.32266039
Xe   0.00145674 0.98282814 0.42714831
Xe   0.01299294 0.99046493 0.94078875
Xe   0.35191289 0.85273689 0.06165392
Xe   0.70064747 0.01253679 0.28034139
Xe   0.55732787 0.67129195 0.01881989
Xe   0.88744855 0.96684819 0.57383758
Xe   0.28182754 0.05584167 0.76261038
Xe   0.83500594 0.30314890 0.80985874
Xe   0.92108595 0.50309002 0.16740730
Xe   0.42526487 0.04651266 0.84077400
Xe   0.57142437 0.93724251 0.88319600
Xe   0.96996760 0.93204826 0.26056504
Xe   0.14027369 0.64583576 0.06773102
Xe   0.90950561 0.67834020 0.02264567
Xe   0.37439671 0.33126840 0.90069157
Xe   0.06761330 0.62704533 0.26350796
Xe   0.16552383 0.93484408 0.63906711
Xe   0.16553855 0.06792231 0.79209834
Xe   0.07057092 0.79437906 0.73783112
Xe   0.59917599 0.01181577 0.39084756
Xe   0.40481165 0.11091819 0.73830193
Xe   0.22897293 0.51224250 0.32972339
Xe   0.84986758 0.81879050 0.70540023
Xe   0.02695703 0.95781344 0.82010007
Xe   0.76581812 0.87130666 0.84798414
Xe   0.19233373 0.08213655 0.13806652
Xe   0.56149209 0.89869040 0.74482048
Xe   0.27133608 0.64897001 0.84218657
Xe   0.62720716 0.93193054 0.63338727
Xe   0.74663037 0.77417600 0.92447031
Xe   0.71328723 0.76119775 0.15996175
Xe   0.91912889 0.80138320 0.80417895
Xe   0.92792821 0.61698061 0.36340496
Xe   0.75114775 0.90919662 0.06490582
Xe   0.48999411 0.13290170 0.76365507
Xe   0.23118012 0.93687463 0.38222483
Xe   0.31711301 0.35843143 0.82948798
Xe   0.43688935 0.16119777 0.16756916
Xe   0.26034433 0.88497651 0.85391408
Xe   0.14437905 0.70746028 0.09577692
Xe   0.78228372 0.89920545 0.01081519
Xe   0.29876399 0.28590348 0.04613008
Xe   0.83909655 0.21958506 0.02938493
Xe   0.06287522 0.51536196 0.29507062
Xe   0.42210126 0.82554448 0.78538847
Xe   1.00029433 0.23010594 0.08134197
Xe   0.12817834 0.65573865 0.51130080
Xe   0.07373455 0.17355798 0.00750441
Xe   0.10222190 0.90407598 0.60492939
Xe   0.28296056 0.44050914 0.82766336
Xe   0.16296351 0.75010306 0.93460858
Xe   0.76349324 0.88459390 0.65476751
Xe   0.00439965 0.44632137 0.57071805
Xe   0.96506768 0.07719246 0.95241314
Xe   0.84836668 0.84424663 0.23368157
Xe   0.56240439 0.16387582 0.03228370
Xe   0.69326073 0.79365802 0.06831960
Xe   0.77529430 0.52364630 0.12427899
Xe   0.06937905 0.89955854 0.19561507
Xe   0.13680106 0.72710419 0.04258388
Xe   0.15391406 0.78534436 0.06442025
Xe   0.26041791 0.63687468 0.08098882
Xe   0.02185109 0.90566510 0.81937909
Xe   0.74155384 0.07291053 0.03777222
Xe   0.29724839 0.99208355 0.11547969
Xe   0.02344026 0.09399647 0.89846975
Xe   0.99125952 0.42424956 0.02208652
Xe   0.79284877 0.57769275 0.53182757
Xe   0.55367863 0.93170983 0.57760453
Xe   0.70648915 0.91546500 0.19283402
Xe   0.12330783 0.71943796 0.32754561
Xe   0.65899056 0.24340789 0.24633607
Xe   0.03098882 0.62367564 0.04549735
Xe   0.06873161 0.24949969 0.38834611
Xe   0.16184519 0.45060328 0.55020601
Xe   0.23846379 0.52772218 0.11918776
Xe   0.24000885 0.20653327 0.45213360
Xe   0.27945852 0.85385519 0.99234849
Xe   0.26692170 0.84348148 0.74387878
Xe   0.77636850 0.77708948 0.53981757
Xe   0.45409065 0.88119483 0.25276634
Xe   0.64489406 0.84792525 0.43198940
Xe   0.30142733 0.05825486 0.21517070
Xe   0.17398471 0.45885816 0.96405238
Xe   0.03552090 0.55360508 0.49540907
Xe   0.27658918 0.00017657 0.35457623
Xe   0.00723955 0.56464100 0.90537083
Xe   0.87226307 0.69811654 0.75014716
Xe   0.97761923 0.40778399 0.74998534
Xe   0.65766627 0.03691878 0.25022072
Xe   0.50350207 0.87245440 0.92332256
Xe   0.23669806 0.83459389 0.94451153
Xe   0.98635960 0.89957327 0.85560626
Xe   0.48088580 0.20210418 0.43759567
Xe   0.57944381 0.84125960 0.13485874
Xe   0.40048558 0.21175691 0.82466155
Xe   0.16312538 0.35670984 0.56911415
Xe   0.97726607 0.76246321 0.71905535
Xe   0.31196293 0.03783108 0.73303419
Xe   0.30590051 0.12057093 0.03705120
Xe   0.04145085 0.32889935 0.99660093
Xe   0.84930843 0.30197173 0.59979403
Xe   0.70501763 0.97155684 0.76787817
Xe   0.56002057 0.07919364 0.25675398
Xe   0.19384933 0.33365214 0.73678631
Xe   0.82120365 0.93936139 0.28990582
Xe   0.59646851 0.28394645 0.97449970
Xe   0.05885815 0.64267212 0.37040907
Xe   0.44638023 0.96193349 0.37722188
Xe   0.96068281 0.15969688 0.96349317
Xe   0.40751913 0.87507361 0.89407009
Xe   0.17797235 0.71614182 0.71331668
Xe   0.28752208 0.11202177 0.50295764
Xe   0.89788115 0.88399059 0.02859035
Xe   0.49031782 0.29343730 0.84514421
Xe   0.82043850 0.22854620 0.41249266
Xe   0.67004120 0.87151265 0.57926720
Xe   0.53683054 0.62683928 0.80756330
Xe   0.07670689 0.36870217 0.31219834
Xe   0.72776634 0.82463217 0.92789876
Xe   0.06528840 0.78743380 0.94421721
Xe   0.21446440 0.63864040 0.88852262
Xe   0.77719247 0.40882874 0.89791054
Xe   0.06422895 0.78040022 0.25495881
Xe   0.39473221 0.08388758 0.26914361
Xe   0.72447032 0.28753680 0.83652145
Xe   0.42881107 0.10317834 0.46247795
Xe   0.13912596 0.91352266 0.23668334
Xe   0.82432312 0.72324896 0.86759865
Xe   0.45670983 0.11331666 0.33009124
Xe   0.78463805 0.13634491 0.75239849
Xe   0.74493819 0.12171867 0.36472926
Xe   0.51315480 0.98310769 0.73908186
Xe   0.03047381 0.24611536 0.34130371
Xe   0.08908181 0.94146556 0.23612420
Xe   0.27171865 0.07926722 0.26296350
Xe   0.69211298 0.89434963 0.89415830
Xe   0.00744556 0.11369924 0.27675104
Xe   1.00457633 0.28927311 0.98154801
Xe   0.30826959 0.81183052 0.07704532
Xe   0.47067392 1.00328135 0.40451735
Xe   0.96598005 0.93376988 0.83581519
Xe   0.49814597 0.90041202 0.18300472
Xe   0.08048852 0.36721599 0.47445557
Xe   0.10457622 0.84741026 0.80545908
Xe   0.68481463 0.87301356 0.52377874
Xe   0.75172162 0.84427601 0.33346087
Xe   0.06968805 0.56829017 0.41402295
Xe   0.04515892 0.98457921 0.39074457
Xe   0.15754856 0.33193055 0.99635077
Xe   0.89221597 0.80513537 0.84324604
Xe   0.10645968 0.91901124 0.08922896
Xe   0.04409947 0.75849032 0.76821661
Xe   0.78031194 0.22722191 0.10932902
Xe   0.05684226 0.20962331 0.95821077
Xe   0.93343145 0.56478810 0.49842557
Xe   0.20057386 0.47149792 0.27816361
Xe   0.54688054 0.97879630 0.62860507
Xe   0.98057681 0.31924662 0.86508244
Xe   0.02227781 0.99252510 0.76905531
Xe   0.23310772 0.10437022 0.68418193
Xe   0.82733965 0.76469988 0.29345205
Xe   0.63347554 0.17508829 0.82620656
Xe   0.14792526 0.45698941 0.70771044
Xe   0.80129492 0.18671277 0.88457918
Xe   0.64302534 0.33179811 0.05871101
Xe   0.61094761 0.59696883 0.90927017
Xe   0.90626842 0.22360212 1.00523841
Xe   0.20163332 0.15979987 0.56623012
Xe   0.34097999 0.60640079 0.05145674
Xe   0.70879930 0.74554151 0.88098884
Xe   0.98172456 0.86262506 0.98168033
Xe   0.71917307 0.13574162 0.95236903
Xe   0.84838140 0.96971750 0.82192469
Xe   0.62989992 0.97274870 0.12604474
Xe   0.26723072 0.12277810 0.59343737
Xe   0.04598293 0.89911711 0.86605352
Xe   0.71577400 0.17632431 0.35618010
Xe   0.88319600 0.24202472 0.69337851
Xe   0.06364037 0.23706593 0.66650975
Xe   0.75862271 0.19171572 0.20869629
Xe   0.15485580 0.74146557 0.60316366
Xe   0.08884639 0.65690112 0.84860218
Xe   0.98609477 0.83278400 0.02129194
Xe   0.39871985 0.95587111 0.14249559
Xe   0.20735727 0.83334315 0.07613302
Xe   0.16314009 0.01352266 0.17104179
Xe   0.05082402 0.82193941 0.83672750
Xe   0.13425544 0.36397880 0.86992347
Xe   1.00338435 0.70203060 0.55208945
Xe   0.16949676 0.96065336 0.14717481
Xe   0.89301062 0.15398765 0.88609481
Xe   0.26895234 -.00292819 0.79561508
Xe   0.77447027 0.94568861 0.69121540
Xe   0.84508532 0.48479986 0.88122427
Xe   0.04570336 0.98790467 0.28110653
Xe   0.96015304 0.83247501 0.77703059
Xe   0.02086521 0.29898471 0.51386112
Xe   0.78653622 0.98010600 0.76570040
Xe   0.67037964 0.96050620 0.07151265
Xe   0.11294880 0.46509713 0.88056207
Xe   0.91163921 0.75091231 0.58438790
Xe   0.20050031 0.13628605 0.15793113
Xe   0.60644495 0.30394351 0.13362272
Xe   0.83022368 0.22569159 0.53007650
Xe   0.93469685 0.68691874 0.23700707
Xe   0.39655682 0.15542966 0.71509713
Xe   0.12670688 0.88715422 0.19329017
Xe   0.98649204 0.87962037 0.33063567
Xe   0.15506181 0.28175399 0.18634491
Xe   0.85713655 0.04352560 0.37713361
Xe   0.04399647 0.68465275 0.41365510
Xe   0.01911419 0.07550029 0.85963804
Xe   0.06662743 0.07218952 0.20587111
Xe   0.09914656 0.27809006 0.60314894
Xe   0.91674513 0.02341083 0.34919071
Xe   0.15790170 0.25481164 0.28535903
Xe   0.86799586 0.79092115 0.79827839
Xe   0.89078867 0.08978812 0.99317253
Xe   0.64846969 0.76021194 0.99395239
Xe   0.54692465 0.80957919 0.85412008
Xe   0.21077105 0.80425251 0.38334316
Xe   0.82054150 0.87942904 0.36508241
Xe   0.17062978 0.05350206 0.50938791
Xe   0.15117717 0.01655385 0.06881990
Xe   0.94710124 0.12366098 0.51119781
Xe   0.12015893 0.18028252 0.78591818
Xe   0.02733961 0.81982052 0.50985879
Xe   0.24989700 0.99867576 0.84518832
Xe   0.22591230 0.95884347 0.28468218
Xe   0.57285166 0.97626549 0.37479401
Xe   0.21030018 0.91250736 0.30878460
Xe   0.99802822 0.37542674 0.54529130
Xe   0.10395821 0.42261627 0.68344611
Xe   0.05690112 0.55573869 0.88899356
Xe   0.78608006 0.94889641 0.51876104
Xe   0.01144791 0.93655092 0.94883758
Xe   0.93622720 0.40004414 0.48849326
Xe   0.85743088 0.96746618 0.36524427
Xe   0.02099765 0.18324015 0.75913775
Xe   0.27508828 0.39367273 0.08546204
Xe   0.95859337 0.13134196 0.02763390
Xe   0.56418478 0.11823131 0.01915833
Xe   0.31409654 0.65444380 0.90947616
Xe   0.26369923 0.33219540 0.88094467
Xe   0.83643323 0.96695113 0.11512654
Xe   0.72682464 0.92429370 0.92204237
Xe   0.67575043 0.37420541 -.00094173
Xe   0.50641555 0.05345792 0.39732197
Xe   0.48759568 0.17027663 0.73170984
Xe   0.33010596 0.03319600 0.26236022
Xe   0.15993232 0.87282228 0.60903472
Xe   0.44829312 0.70887285 0.12579459
Xe   0.20435549 0.04961742 0.61096233
Xe   0.04755739 0.05225133 0.89947027
Xe   0.79459977 0.68557972 0.98279870
Xe   0.91836375 0.47994411 0.98762512
Xe   0.89118600 0.58437318 0.76667160
Xe   0.38897881 0.08075339 0.13251913
Xe   0.50416422 0.83811069 0.58151853
Xe   0.08663920 0.87427902 0.83351970
Xe   0.53112125 0.19723368 0.85996175
Xe   0.36428782 0.85765153 0.30682755
Xe   0.80253094 0.58660978 0.14592408
Xe   0.76987934 0.37127724 0.86444968
Xe   0.18527074 0.36748087 0.69200999
Xe   0.47859037 0.76511186 0.14430548
Xe   0.50846088 0.80055916 0.08446144
Xe   0.27358741 0.10269276 0.88271040
Xe   0.87720722 0.86718655 0.63683051
Xe   0.67179221 0.11115362 0.98546207
Xe   0.08715421 0.45163333 0.00915244
Xe   0.83315182 0.54604179 0.06081519
Xe   0.17374925 0.62675107 0.03881695
Xe   0.60294294 0.82311654 0.79161274
Xe   0.49495295 0.86037380 0.52604473
Xe   0.74876404 0.30491465 0.06222778
Xe   0.85091227 0.46390525 0.02698646
Xe   0.04570336 0.82329315 0.28869924
Xe   0.13728663 0.45984402 0.65438497
Xe   0.77607417 0.88596231 0.23624191
Xe   0.16299294 0.97332257 0.99490875
Xe   0.09757210 0.28891996 0.04354032
Xe   0.21868747 0.40801942 0.43067980
Xe   0.95494413 0.27027664 0.92809010
Xe   0.09476162 0.02939965 0.38466746
Xe   0.00489994 0.33446145 0.65061802
Xe   0.59058273 0.05257504 0.42682460
Xe   0.72158623 0.06361095 0.20226605
Xe   0.04741024 0.69760156 0.09651265
Xe   0.17589760 0.76596528 0.56405240
Xe   0.11211006 0.61127132 0.92589760
Xe   0.15055916 0.48296055 0.05366392
Xe   0.34877869 0.12417599 0.44096529
Xe   0.31016776 0.17115951 0.89947027
Xe   0.49805769 0.18366687 0.78025311
Xe   0.78419656 0.19025898 0.78437316
Xe   0.13360800 0.82118893 0.82579458
Xe   0.69590932 0.38516775 0.94733661
Xe   0.14211302 0.75316364 0.77285165
Xe   0.06520012 0.60450268 0.18894938
Xe   0.34009713 0.47005591 0.15826957
Xe   0.83106238 0.92678046 0.88727194
Xe   0.51867276 0.86693645 0.33112127
Xe   0.07789877 0.70619482 -.00439965
Xe   0.93082696 0.20641553 0.17338140
Xe   0.03572690 0.28693348 0.02994409
Xe   0.13122426 0.44083285 0.08544733
Xe   0.00185403 0.05223661 0.63050324
Xe   1.00404656 0.73353446 0.49045029
Xe   0.25878459 0.85629785 0.50734258
Xe   0.03524132 0.48185700 0.94673336
Xe   0.98219544 0.30551797 0.47973809
Xe   0.65540028 0.84836668 0.97906125
Xe   0.56962925 0.94788110 0.45381105
Xe   1.00141263 0.10164803 0.03290171
Xe   0.27188051 0.83671278 0.32723662
Xe   0.02030606 0.85728371 0.46971750
Xe   0.18837552 0.01015303 0.42058563
Xe   0.87676573 0.86266923 0.54674810
Xe   0.13713948 0.64302534 0.82638317
Xe   0.65815187 0.36453798 0.95809299
Xe   0.77989995 0.82786936 0.88382870
Xe   0.49617425 0.09952913 0.46511182
Xe   0.86530310 0.55151558 0.84105361
Xe   0.20076516 0.56902593 0.75438493
Xe   0.98959678 0.70022076 0.37817836
Xe   0.71103591 0.67497057 0.12285168
Xe   0.43223956 0.10275162 0.16418482
Xe   0.43690404 0.98731607 0.92254269
Xe   0.40878460 0.31652442 0.96247798
Xe   0.52757508 0.29386404 0.05584167
Xe   0.75129485 0.84130371 0.04986757
Xe   0.05334020 0.79327548 0.07748675
Xe   0.87201297 0.18965568 0.72848737
Xe   0.17576516 0.51034433 0.32466155
Xe   0.81389052 0.29623309 0.71236020
Xe   0.89592409 0.64589465 0.53640378
Xe   0.45026487 0.05291348 0.39090642
Xe   0.93059152 0.65079463 0.13663921
Xe   0.82239550 0.25119185 0.81149203
Xe   0.37807533 0.93266624 0.87014419
Xe   0.82884049 0.75345796 0.69423193
Xe   0.69517362 0.72358739 0.81687760
Xe   0.09889641 0.68571222 0.03547675
Xe   0.05688640 0.99445266 0.02039435
Xe   0.67363155 0.90206003 0.70372277
Xe   0.04845497 0.53740436 0.98112130
Xe   0.06127134 0.42271927 0.40528253
Xe   0.58587408 0.58376986 0.15766628
Xe   0.23368157 0.83712476 0.54123014
Xe   0.50182462 0.54439378 0.10591525
Xe   0.52841377 0.03316657 0.44658625
Xe   0.30644497 0.88441730 0.42639789
Xe   0.08438788 0.62882578 0.74351090
Xe   0.64077401 -.00019129 0.55690110
Xe   0.23847853 0.94155383 0.89037669
Xe   0.14180401 0.89047968 0.53098881
Xe   0.74916124 0.29445261 0.92263097
Xe   0.50463504 0.14323132 0.29095057
Xe   0.22739848 0.43690404 0.10897587
Xe   0.73125368 0.49849910 0.14696881
Xe   0.96777511 0.70344323 0.02386698
Xe   0.92248386 0.36417010 0.41543555
Xe   0.84424663 0.74557090 0.90759271
Xe   0.01650971 0.97769278 0.08588876
Xe   0.05017658 0.38131255 0.06776045
Xe   0.39011183 0.14967628 0.19783697
Xe   0.01452325 0.57061505 0.80270743
Xe   0.63362277 0.09501177 0.50122130
Xe   0.74395233 0.09298116 0.44861686
Xe   0.92011476 0.92636847 0.46130079
Xe   0.38441730 0.73378462 0.96643615
Xe   0.93387288 0.74143618 0.09771924
Xe   0.72919363 0.94861686 0.33952326
Xe   0.66864336 0.22928193 0.94688052
Xe   0.75057387 0.64299589 0.20210418
Xe   0.16469982 0.16031490 0.06277221
Xe   0.98444676 0.98955268 0.19078870
Xe   0.52117419 0.00072101 0.14483520
Xe   0.72245437 0.86943793 0.49233374
Xe   0.48466745 0.19105357 0.03986169
Xe   0.29298115 0.91364038 0.56680399
Xe   0.10504708 0.93101823 0.74515891
Xe   0.83112127 0.05829900 0.75840199
Xe   0.96418482 0.68800765 0.72447032
Xe   0.93964100 0.57639790 0.98796350
Xe   0.01122719 0.82978219 0.11709829
Xe   0.05270747 0.58755153 0.97483814
Xe   0.70850503 0.82472044 0.49833727
Xe   0.01586227 0.78706592 0.73830193
Xe   0.95188349 0.87838435 0.88165098
Xe   0.49994117 0.81284583 0.01383167
Xe   0.11726015 0.07113008 0.38253385
Xe   0.59498239 0.69174516 0.06203650
Xe   0.29876399 0.92914951 0.81312537
Xe   0.23225428 0.37472042 0.71670103
Xe   0.27683932 0.53527075 0.16756916
Xe   0.55751914 0.31987935 0.08015009
Xe   0.86455268 0.83172452 0.37535316
Xe   0.62589759 0.89030313 0.33946440
Xe   0.28597704 0.63020891 0.79988229
Xe   0.35301647 0.95569450 0.40241319
Xe   0.57433790 0.83534431 0.08958211
Xe   0.26677456 0.43463802 0.87411714
Xe   0.52583873 0.16035904 0.36434668
Xe   0.08896410 0.74526191 0.77043849
Xe   0.05598882 0.18138611 0.81137431
Xe   0.14565921 0.55425251 0.77499998
Xe   0.66540617 0.05985874 0.71790761
Xe   0.76826072 0.02190995 0.43195999
Xe   0.01331666 0.68087107 0.03818423
Xe   0.78017950 0.10947616 0.89078867
Xe   0.68057680 0.75286937 0.08485875
Xe   0.67386699 0.11128605 0.38643318
Xe   0.44905826 0.41059446 0.98677158
Xe   0.30077988 0.97527957 0.03894939
Xe   0.28004709 0.58325487 0.95947617
Xe   0.71274281 0.07433785 0.15311949
Xe   0.54059738 0.80170691 0.36321366
Xe   0.11877575 0.35678339 0.71942317
Xe   0.10014715 0.12857564 0.49939671
Xe   0.50601822 0.91521490 0.03992054
Xe   0.11122719 0.67611831 0.09111242
Xe   0.10872572 0.89593881 0.79499704
Xe   0.20676869 0.08674220 0.81185991
Xe   0.06786345 0.53287232 0.07651559
Xe   0.59095055 0.38381401 0.90272218
Xe   0.98694819 0.74997056 0.53700703
Xe   0.15130959 0.64768982 0.41796646
Xe   0.45865217 0.06337552 0.94133312
Xe   0.11478812 0.94118601 0.65463507
Xe   0.91708362 0.47932610 0.70950556
Xe   0.69149500 0.06019718 0.64882284
Xe   0.58652151 0.19134785 0.23441730
Xe   0.76559740 0.00978517 0.97015893
Xe   0.08182754 0.27683932 0.64751327
Xe   0.06965863 0.29682168 0.99739552
Xe   0.09454091 0.42168924 0.75851971
Xe   0.86090350 0.67311651 0.59668922
Xe   0.16993819 0.19430548 0.58338726
Xe   0.92439669 0.28290170 0.81730431
Xe   0.05097116 0.46567097 0.59542376
Xe   0.01108005 0.41736317 0.19072984
Xe   0.78278404 0.07317540 0.43100354
Xe   0.70567983 0.42020306 0.88025308
Xe   0.19268689 0.90977043 0.92761922
Xe   0.66945261 0.36447912 0.81327254
Xe   0.27866393 0.70104474 0.83248973
Xe   0.28725719 0.93291646 0.51789290
Xe   0.79567397 0.35020599 0.47969392
Xe   0.08198941 0.50044143 0.62947321
Xe   0.66833431 0.83300471 0.54084760
Xe   0.17092408 0.78549147 0.62604475
Xe   0.66128606 0.92614776 0.96951151
Xe   0.71575928 0.97061503 0.84012657
Xe   0.68711007 0.19935256 0.04024426
Xe   0.84020013 0.30975574 0.02683932
Xe   0.53864038 0.97018832 1.00033844
Xe   0.06558269 0.00328134 0.09080341
Xe   0.23534434 0.79209834 0.96976161
Xe   0.62267512 0.27551502 0.21852560
Xe   0.35751915 0.11419953 0.95899051
Xe   0.89096528 0.75775456 0.88240141
Xe   0.74203944 0.13869923 0.76926130
Xe   0.61924660 0.33253387 0.97196883
Xe   0.95116246 0.28293115 0.87214541
Xe   0.11712772 0.03884638 0.83382875
Xe   0.07086521 0.86961448 0.39230430
Xe   0.18612419 0.61244851 0.35773987
Xe   0.90719539 0.33263686 0.98719829
Xe   0.24046497 0.96831959 0.54268688
Xe   0.78706592 0.28557977 0.95554745
Xe   0.23684521 0.81642145 0.29387876
Xe   0.93287230 0.15419364 0.92382288
Xe   0.19817540 0.55904943 0.90207475
Xe   0.76149207 0.20272219 0.68909657
Xe   0.18821366 0.25179517 0.80566508
Xe   0.84398174 0.32435256 0.25292820
Xe   0.68652147 0.97841370 0.14371690
Xe   0.33391702 0.08165097 0.27550030
Xe   0.03185697 0.06183049 0.70921135
Xe   0.08212183 0.15840201 0.59081817
Xe   0.22467628 0.89089167 0.26027074
Xe   0.50295764 0.01586227 0.78025311
Xe   0.80528253 0.39454091 0.64065629
Xe   1.00019133 0.91134495 0.14114185
Xe   0.69249558 0.03534432 0.05906415
Xe   0.38513830 0.60041201 0.06795174
Xe   0.93955272 0.92351383 0.16386110
Xe   0.16570041 0.07392585 0.88259268
Xe   0.10952030 0.48961151 0.67866397
Xe   0.02591230 0.87032080 0.60431135
Xe   0.15454680 0.47992939 0.45856386
Xe   0.98231316 0.79312831 0.89361387
Xe   0.88313717 0.20537080 0.20376691
Xe   0.13474102 0.52941436 0.48668337
Xe   0.07630959 0.54554152 0.21911418
Xe   0.34465864 0.50997645 0.21623014
Xe   0.14221601 0.05366392 0.59059745
Xe   0.44414362 0.89381987 0.34857267
Xe   0.12085050 0.43304887 0.53678632
Xe   0.12886994 -.00395821 0.54690993
Xe   0.57055622 0.36027074 0.79851383
Xe   0.50428194 0.06870218 0.62002653
Xe   0.38126838 0.17495586 0.06200707
Xe   0.29345205 0.52953207 0.79312831
Xe   0.61993819 0.11784873 0.38303414
Xe   0.14771923 0.68836081 0.75575340
Xe   0.64352560 1.00304592 0.15236904
Xe   0.82289582 0.96836370 0.54530603
Xe   0.72704530 0.40645969 0.05416422
Xe   0.91272807 0.02020306 0.13015009
Xe   0.55275160 0.45937318 0.06805474
Xe   0.38715422 0.63772810 0.83356386
Xe   0.12246910 0.86434668 0.97473508
Xe   0.87455857 0.72105646 0.83955270
Xe   0.29177457 0.14209829 0.54433489
Xe   0.96275753 0.96071219 0.02211595
Xe   0.94955856 0.50429666 0.45342851
Xe   0.98359334 0.49342263 0.04602708
Xe   0.49195114 0.72809005 0.81596529
Xe   0.01312537 0.90463507 0.09562978
Xe   0.32083580 0.98042965 0.62539726
Xe   0.99605656 0.15731312 0.22535315
Xe   0.20615068 0.23372573 0.31636256
Xe   0.72563273 0.25178045 1.00052977
Xe   0.93065041 0.38410830 0.06399353
Xe   0.12513243 0.78853738 0.51561213
Xe   0.91071218 0.23621248 0.61964393
Xe   0.76602411 0.61918777 0.09314302
Xe   0.92288113 0.46211007 0.53565335
Xe   0.11890819 0.05481165 0.23865509
Xe   0.95921135 0.70909357 0.84027368
Xe   0.11681872 0.22251324 0.11522955
Xe   0.75388467 0.17005593 0.99596816
Xe   0.81431723 0.25582695 0.74037671
Xe   0.35123605 0.08063567 0.80515009
Xe   0.25036785 0.04615951 0.29415831
Xe   0.05813714 0.16845202 0.40612125
Xe   0.59554148 0.15225133 0.44570339
Xe   0.92280757 0.35782814 0.23231313
Xe   0.75016183 0.09156857 0.76508242
Xe   0.09929371 0.20339906 0.96266919
Xe   0.71977633 0.17675103 0.68677163
Xe   0.37413186 0.36790761 0.11830489
Xe   0.61171275 0.19305474 0.16100648
Xe   0.30139789 0.20283991 0.52629489
Xe   0.81596529 0.85186875 0.94203949
Xe   0.12012948 0.34477633 0.55662155
Xe   0.32346970 0.86636257 0.29524723
Xe   0.05816657 0.53997940 0.45779869
Xe   0.52480870 0.99186283 0.29599765
Xe   0.64439374 0.98251921 0.40197176
Xe   0.61096233 0.20746027 0.37380812
Xe   0.75303119 0.14405532 0.67801648
Xe   0.96150678 0.09359918 0.44935256
Xe   0.92405826 0.26881990 0.53900826
Xe   0.05562095 0.73216599 0.94164217
Xe   0.82519132 0.57037967 0.71443498
Xe   0.10573867 0.56494999 0.31821659
Xe   0.48650676 0.41399354 0.02572101
Xe   0.09096528 0.83725727 0.03894939
Xe   0.86773103 0.89159799 0.07108593
Xe   0.41830489 0.53703654 0.17361683
Xe   0.12623604 0.16493525 0.47479397
Xe   0.05036787 0.98075342 0.53725725
Xe   0.21705416 0.71271336 0.40675396
Xe   0.23490289 0.32095352 0.11244851
Xe   0.10386992 0.85491467 0.35778400
Xe   0.22785462 0.20581225 0.70019126
Xe   0.13462332 0.68864036 0.17394055
Xe   0.30829901 0.90587109 0.47217482
Xe   0.03524132 0.78894937 0.14190701
Xe   0.93986171 0.90122133 0.81917310
Xe   0.72602999 0.70410538 0.86670101
Xe   0.03145968 0.47866392 0.17114478
Xe   0.45050028 0.97395533 0.07741319
Xe   0.81723076 0.34727782 0.97223365
Xe   0.98060620 0.72354329 0.96459687
Xe   0.01756916 0.43145970 0.39217189
Xe   0.68700707 0.05391407 0.99304003
Xe   0.04496763 0.45885816 0.53625661
Xe   0.17104179 0.46302235 0.23618306
Xe   0.51484698 0.58015007 0.86678934
Xe   0.16249265 0.06138905 0.30744556
Xe   0.18276927 0.95126551 0.29782224
Xe   0.55803412 0.87529433 0.15544438
Xe   0.18621248 0.35982934 0.53409362
Xe   0.51119781 0.77111536 0.83921427
Xe   0.97839904 0.70885813 0.07444085
Xe   0.17230724 0.74165684 0.07127722
Xe   0.11308122 0.77907592 0.80376697
Xe   0.72227782 0.19274573 0.17629488
Xe   0.98791939 0.80023545 0.61436141
Xe   0.42424956 0.26842260 0.90819603
Xe   0.83454973 0.02211595 0.13750736
Xe   0.13112125 0.23276928 0.34318718
Xe   0.84905827 0.84259862 0.17480871
Xe   0.95529717 0.13397586 0.76952618
Xe   0.91962922 0.75451738 0.93992054
Xe   0.33063567 0.10681283 0.12857564
Xe   0.00169217 0.96193349 0.25897586
Xe   0.96957034 0.17026192 0.01263979
Xe   0.25391409 0.01496468 0.39399645
Xe   0.03887581 0.60551798 0.30891702
Xe   0.36824602 0.13738964 0.51709825
Xe   0.91696590 0.69089168 0.17575045
Xe   0.58123899 0.08527075 0.55635673
Xe   0.51028550 0.90201586 0.38975871
Xe   0.35470867 0.08946439 0.01490583
Xe   0.16472925 0.06299294 0.16749559
Xe   0.02917893 0.10495880 0.96856970
Xe   0.00348735 0.86212480 0.78875810
Xe   0.13703649 0.20103002 0.49537966
Xe   0.72188050 0.93899351 0.38633019
Xe   0.58933192 0.55937314 0.00478222
Xe   0.40153033 0.98758090 0.34793997
Xe   0.36231607 0.01334609 0.21656857
Xe   0.22567686 0.63218069 0.46861389
Xe   0.54031783 0.10060330 0.58702183
Xe   0.66013831 0.92176282 0.83912599
Xe   0.68209243 0.83911127 0.09408475
Xe   0.39888170 0.69963217 0.04583579
Xe   0.61221308 0.75359035 0.13708064
Xe   0.90953505 0.92482346 -.00620954
Xe   0.04480577 0.63677168 0.82040906
Xe   0.70884347 0.05336963 0.94327551
Xe   0.04568864 0.32866392 0.04642437
Xe   0.07722190 0.03360800 0.25542966
Xe   0.59017074 0.94414365 0.09716010
Xe   0.85032368 0.08515304 0.61000592
Xe   0.01378752 0.53147441 0.02920836
Xe   0.97149801 0.15831371 0.39899939
Xe   0.98663926 0.24783698 0.96492052
Xe   0.05283991 0.36375812 0.23753679
Xe   0.06383166 0.50653327 0.91570044
Xe   0.18559447 0.94334906 0.81618595
Xe   0.07739847 0.25648910 0.09754267
Xe   0.35422307 0.91796643 0.13081224
Xe   0.95164812 0.78975868 0.70144200
Xe   0.98193061 0.64874929 0.16633314
Xe   0.52140969 0.34198058 0.95036787
Xe   0.13953796 0.41821662 0.34190699
Xe   0.85566515 0.00837257 0.43082696
Xe   0.28259271 0.75389940 0.12645674
Xe   0.01088876 0.92012954 0.90052974
Xe   0.55356091 1.00298715 0.10859329
Xe   0.92742789 0.43597704 0.33359328
Xe   0.19390818 0.27751619 0.10763685
Xe   0.24730723 0.29095057 0.17020307
Xe   0.89336377 0.36527368 0.52835494
Xe   0.92030603 0.02650088 0.18095939
Xe   0.95570922 0.40429664 0.37083578
Xe   0.52782518 0.11099176 0.63263685
Xe   0.43912596 0.16259564 0.36520013
Xe   0.01177163 0.61287522 0.98553556
Xe   0.39095056 0.80809301 0.71497941
Xe   0.48613888 0.98818421 0.61937904
Xe   0.93178344 0.08432902 0.08855209
Xe   0.53331369 0.20600353 0.20116244
Xe   0.98849326 0.50242794 0.24136257
Xe   0.52451444 0.88143027 0.57978225
Xe   0.81130081 0.61980581 0.74651271
Xe   0.49955857 0.33382872 0.85872573
Xe   0.16625956 0.08962625 0.83471161
Xe   0.62542677 0.02040906 0.74008244
Xe   0.05217775 0.97809005 0.92179227
Xe   0.94760156 0.29264274 0.05760742
Xe   0.53799295 0.10857858 0.97592700
Xe   0.90504712 0.57785463 0.37570632
Xe   0.04409947 0.39629194 0.28499117
Xe   0.57277811 0.17650089 0.07903178
Xe   0.59942615 0.89164215 0.41394940
Xe   0.22881107 0.13471159 0.39022955
Xe   0.94640970 0.29081813 0.24805768
Xe   0.90772516 0.84605652 0.45469394
Xe   0.98262215 0.32882577 0.76037377
Xe   0.72467631 0.18781637 0.73449087
Xe   0.46377280 0.67012948 0.88621253
Xe   0.34760153 0.09411418 0.36603883
Xe   0.27238080 0.78319603 0.15734255
Xe   0.14050913 0.37346971 0.80456156
Xe   0.52982640 0.33115068 0.02838434
Xe   0.74919075 0.43518248 0.98693347
Xe   0.41391996 0.21427311 0.64228964
Xe   0.12504415 0.47218952 0.28949383
Xe   0.98148918 0.82338142 0.39558566
Xe   0.46222779 0.58057684 0.86664212
Xe   0.22701590 0.12788405 0.33213657
Xe   0.04735138 0.56689233 0.33847854
Xe   0.86321366 0.68541789 0.16059446
Xe   0.93513829 0.96213955 0.97847265
Xe   0.32909065 0.86202180 0.15815187
Xe   0.16702472 0.34879342 0.63131255
Xe   0.87277812 0.57333726 0.09835197
Xe   -.00228075 0.83247501 0.57076222
Xe   0.31564155 0.41980579 0.06575927
Xe   0.76530308 0.79701298 0.58132726
Xe   0.91976166 0.70344323 0.33765450
Xe   0.95881408 0.13085638 0.67476457
Xe   0.03181283 0.14558564 0.89259857
Xe   0.90884346 0.86321366 0.98749268
Xe   0.31181577 0.31065333 0.90731311
Xe   0.63247502 0.21221307 0.63955271
Xe   0.16340494 0.46983519 0.91213948
Xe   0.09134786 0.47027662 0.33097410
Xe   0.05700412 0.91286051 0.00500294
Xe   0.82603002 0.79976457 0.19833726
Xe   0.66979110 0.02779576 0.94905829
Xe   0.11655386 0.13902296 1.00023544
Xe   1.00632727 0.19764568 0.24045026
Xe   0.91337556 0.26749560 0.21553855
Xe   0.31171277 0.22346969 0.89658624
Xe   0.90323716 0.58447617 0.90938789
Xe   0.47532374 0.04732196 0.43772808
Xe   0.25397292 0.20432608 0.10912301
Xe   0.29277515 0.20560624 0.85751915
Xe   0.48070922 0.07577987 0.70361978
Xe   0.08206298 0.36737785 0.42525014
Xe   0.30257505 0.24136257 0.17966451
Xe   0.85793114 0.83462334 0.81733376
Xe   0.19537963 0.14802825 0.79705709
Xe   0.90172160 0.81845206 0.15772513
Xe   0.55210418 0.85064745 0.59021485
Xe   0.00592996 0.82167453 0.64955860
Xe   0.83471161 0.04947028 0.09951442
Xe   0.84599763 0.06268393 0.25129488
Xe   0.68641847 0.79429078 0.01820188
Xe   0.01518540 0.15198646 0.37210125
Xe   0.91534728 0.78054738 0.05803414
Xe   0.10157446 0.04439376 0.18693350
Xe   0.21486169 0.87113011 0.94018543
Xe   0.54193646 0.14974986 0.74638021
Xe   0.11562683 0.39863154 0.83407885
Xe   0.90101534 0.31801060 0.07942908
Xe   0.90984404 0.60866690 0.96034431
Xe   0.81374335 0.49505594 0.64696878
Xe   0.86968803 0.81934959 0.59970570
Xe   0.52994406 0.82585347 0.29439378
Xe   0.30155975 0.90001476 0.13786051
Xe   0.28505003 0.86571515 0.70847559
Xe   0.19148028 0.79467332 0.29567394
Xe   0.05644497 0.94102412 0.89949971
Xe   0.52530903 0.99005294 0.40882874
Xe   0.06065333 0.23103297 0.14211302
Xe   0.17795762 0.46646556 0.77389646
Xe   0.38406417 0.83990586 0.16502355
Xe   0.77118891 0.85045618 0.99390817
Xe   0.54817545 0.88753682 0.08550618
Xe   0.49592406 0.46430254 0.03154797
Xe   0.58894938 0.85862273 0.19629194
Xe   0.57074749 0.87405831 0.29770455
Xe   0.84268689 0.85016185 0.48644790
Xe   0.45386991 0.87633902 0.56018245
Xe   0.76271337 0.83637434 0.48207772
Xe   0.49045029 0.13505004 0.05840200
Xe   0.94501179 0.67892879 0.86996764
Xe   0.98210716 0.61062390 0.88271040
Xe   0.35963804 0.82495588 0.20592996
Xe   0.63241613 0.84660095 0.68605065
Xe   0.11041790 0.06321365 0.78381401
Xe   0.00566510 0.13228369 0.70947617
Xe   0.96419954 0.42110065 0.06951148
Xe   0.52639788 0.98696291 0.96108007
Xe   0.10076516 0.08081225 0.43347558
Xe   0.53596234 0.01930548 0.82975280
Xe   0.11496469 0.79576224 0.91993821
Xe   0.71989405 0.16778988 0.88905239
Xe   0.97480875 0.45369336 0.33185697
Xe   0.89443791 0.85261917 0.19693938
Xe   0.41770157 0.13346085 0.41961449
Xe   0.11018246 0.20085344 0.38917011
Xe   0.26405239 0.35336962 0.94355506
Xe   0.46087402 0.80615067 0.87129194
Xe   0.14624779 0.63465273 0.36630371
Xe   0.62614775 0.36617127 0.79005301
Xe   0.17071807 0.68042970 0.03278399
Xe   0.11979105 0.54072988 0.67867863
Xe   0.97591227 0.98625666 0.82447028
Xe   0.01515597 0.47685406 0.69457030
Xe   0.80704826 0.31673044 0.90709239
Xe   0.05253090 0.44429076 0.45269275
Xe   0.43621248 0.45401707 0.11814303
Xe   0.29218659 0.39022955 0.86662745
Xe   0.32270452 0.98135668 0.42099765
Xe   0.39071512 0.17532372 0.01564155
Xe   0.63278401 0.26465568 0.96895230
Xe   0.79882282 0.86773103 0.31702474
Xe   0.25233963 0.68182760 0.18736021
Xe   0.89774871 0.31954092 0.37107122
Xe   0.38580048 0.17457329 0.78799289
Xe   0.47992939 0.85985875 0.72551501
Xe   0.00139788 0.41711301 0.34301060
Xe   0.81943792 0.35760742 0.02324897
Xe   0.04916127 0.21041790 0.10089759
Xe   0.71848148 0.24710123 0.79947031
Xe   0.07642731 0.55719543 0.01948205
Xe   0.02061507 0.19695410 0.15687169
Xe   0.54593879 0.58874339 0.04445262
Xe   -.00448793 0.28045908 0.81171280
Xe   0.98647738 0.53974396 0.80208945
Xe   0.89000887 0.69018537 0.87201297
Xe   0.89496762 0.39349619 0.60063273
Xe   0.22994408 0.49549735 0.09012654
Xe   0.80997646 0.48990580 0.90819603
Xe   0.87904656 0.76930553 0.03004709
Xe   0.72358739 0.15042672 0.55900532
Xe   0.82494116 0.57099766 0.46096233
Xe   0.31134492 0.01274279 0.31316954
Xe   0.12464685 0.02082107 0.75261921
Xe   0.83836079 0.78947914 0.49886698
Xe   0.63769865 0.05701884 0.83163631
Xe   0.09226015 0.64359915 0.79664510
Xe   0.96259564 0.24587992 0.15317833
Xe   0.14858741 0.52611834 0.42566216
Xe   0.84262800 0.88559449 0.83827257
Xe   0.77344024 0.06571513 0.08600647
Xe   0.44773397 0.86665684 0.14945556
Xe   0.91525900 0.63229841 0.90030903
Xe   0.01971748 0.32258683 0.79173046
Xe   0.88815480 0.10253090 0.40048558
Xe   0.88950855 0.72694230 0.07613302
Xe   0.17676574 0.55289876 0.85601825
Xe   0.62417597 0.23156269 0.01824603
Xe   0.24795468 0.19721895 0.23054738
Xe   0.12764862 0.12801647 0.42903179
Xe   0.61371398 0.79743969 0.12539729
Xe   0.16484697 0.78660977 0.23716892
Xe   0.53507942 0.81580347 0.14877869
Xe   0.88681579 0.98811066 0.30445850
Xe   0.94270164 0.85242790 0.15638612
Xe   0.49926427 0.40104473 0.96396410
Xe   0.64947027 0.63250440 0.83156270
Xe   0.87326372 0.53084171 0.52644205
Xe   0.35693055 0.93332845 0.19420247
Xe   0.01999706 0.26391998 0.59117126
Xe   0.61605358 0.93404949 0.58344615
Xe   0.39760154 0.12707475 0.79579169
Xe   0.55807829 0.37494117 0.93687463
Xe   0.20376691 0.44175985 0.15498823
Xe   0.01695115 0.27932608 0.18958211
Xe   0.53864038 0.30712184 0.82614774
Xe   0.21250737 0.94793993 0.62080634
Xe   0.88784581 0.48434374 0.09320188
Xe   0.86915833 0.23783109 0.56074166
Xe   0.96006477 0.79779279 0.94062686
Xe   0.26261038 0.21025603 0.48530015
Xe   0.97213072 0.14779282 0.28537375
Xe   0.72007066 0.45453209 0.16597998
Xe   0.87199825 0.79698348 0.88711005
Xe   0.40444380 0.89108300 0.98672748
Xe   0.08942025 0.17314598 0.52026188
Xe   0.19613008 0.09074455 0.27073279
Xe   0.22489701 0.98993528 0.89927900
Xe   0.96531779 0.87608892 0.18905237
Xe   0.84256917 0.09440847 0.70997643
Xe   0.45672455 0.96556801 0.58427018
Xe   0.07633903 0.69158328 0.26253676
Xe   0.00991760 0.86658329 0.65517956
Xe   0.95903480 0.31211007 0.10389935
Xe   0.34058270 0.93768394 0.82694232
Xe   0.79411417 0.36459681 0.91478813
Xe   0.25192761 0.06755444 0.20754856
Xe   0.14384933 0.60258979 0.40088287
Xe   0.13341673 0.15954974 0.95775455
Xe   0.57795763 0.48235723 0.03204826
Xe   0.72261626 0.09455562 0.50893176
Xe   0.94633615 0.61097705 0.14256915
Xe   0.94571811 0.42629489 0.02424956
Xe   0.64398175 0.00557681 0.79458505
Xe   0.74604177 0.98175400 1.00345790
Xe   -.00339906 0.50871098 0.14723366
Xe   0.63662446 0.63897878 0.08624191
Xe   0.88145965 0.44867569 0.88861096
Xe   0.62401414 0.51093292 0.02266039
Xe   0.13402002 0.41134492 0.93246025
Xe   0.19523248 0.45256034 0.51218361
Xe   0.94813120 0.83341670 0.96150678
Xe   0.84359920 0.79642439 0.08044438
Xe   0.66108000 0.70966744 0.11553856
Xe   0.13931726 0.01786345 0.30670983
Xe   0.18946441 0.24530606 0.03143025
Xe   0.19165686 0.55737203 0.95738673
Xe   0.25931430 0.02227781 0.25640082
Xe   0.97811949 0.70442909 0.91542089
Xe   0.87736905 0.92978221 0.33271042
Xe   0.04012655 0.38669807 0.95959383
Xe   0.48129782 0.30456150 0.97333729
Xe   0.52691287 0.96306646 0.34711596
Xe   0.46983519 0.98213661 0.98683053
Xe   0.48312244 0.47074750 0.12199824
Xe   0.86531782 0.31896704 0.65242791
Xe   0.26032960 0.05067687 0.86187464
Xe   0.53830194 0.72950268 0.19296646
Xe   0.10804885 0.00551795 0.69317251
Xe   0.18971454 0.88640380 0.15509123
Xe   0.23680107 0.40406120 0.91141850
Xe   0.98944962 0.88749266 0.93777221
Xe   0.76992351 0.85279578 0.73924369
Xe   0.93172455 0.78510886 0.61277223
Xe   0.59683639 0.83956736 0.38246030
Xe   0.43402001 0.82519132 0.83830196
Xe   0.02998823 0.30155975 0.35966748
Xe   0.02179223 0.94791055 0.75918192
Xe   0.34059739 0.98834610 0.06265450
Xe   0.86402297 0.11390524 0.06502355
Xe   0.59855801 0.61758387 0.83931726
Xe   0.42324898 0.17532372 0.86213952
Xe   0.07788406 0.41599470 0.96887881
Xe   0.86082989 0.55840200 0.90148616
Xe   0.09512949 0.30963802 0.14301060
Xe   0.95250154 0.75164807 0.58746320
Xe   0.51620072 0.85086817 0.06158034
Xe   0.61469984 0.53575635 0.90370810
Xe   0.91968805 0.12526485 0.97416133
Xe   0.26149204 0.66125661 0.98928785
Xe   0.92495590 0.47179222 0.66578871
Xe   0.41767216 0.94137734 0.50460565
Xe   0.02542672 0.45977047 0.02532372
Xe   0.17951736 0.05969688 0.71873164
Xe   0.08154797 0.32845792 0.24278988
Xe   0.09354032 0.97060031 0.06153620
Xe   0.47635376 0.97529429 0.80584168
Xe   0.26598001 0.25044143 0.07508829
Xe   0.59749854 0.76280165 0.95117712
Xe   0.19293703 0.49629197 0.55407590
Xe   0.49949971 0.88659507 0.07626545
Xe   0.23783109 0.87383759 0.08852266
Xe   0.51908475 0.16514125 0.01149205
Xe   0.80161864 0.30775458 0.76649499
Xe   0.92276341 0.86402297 0.79111242
Xe   0.14832254 0.96437615 0.24189228
Xe   0.93240142 0.50310481 0.25919658
Xe   0.05712184 0.98365211 0.47058564
Xe   0.13116539 0.49704239 0.22758976
Xe   0.01696586 0.18855210 0.03123896
Xe   0.13098882 0.53404945 0.18299000
Xe   0.22271924 0.12919363 0.84203941
Xe   0.05868158 0.86261040 0.71447909
Xe   0.44117129 0.58622718 0.17360212
Xe   0.47979692 0.06937905 0.56748092
Xe   0.08794880 0.18816951 0.14452618
Xe   0.80070633 0.53715426 0.82739848
Xe   0.88681579 0.70298707 0.93890524
Xe   0.29833725 0.46814305 0.91506767
Xe   0.65660685 0.09432019 0.88088584
Xe   0.30906415 0.92756033 0.98912597
Xe   0.38560918 0.42776632 0.78743380
Xe   0.96274281 0.22370513 0.24190702
Xe   0.21877575 0.68621248 0.13922895
Xe   0.95301646 0.85977048 0.64643908
Xe   0.26524425 0.20592996 0.16049147
Xe   0.21771631 0.99910247 0.15404649
Xe   0.82126254 0.59701300 0.40737197
Xe   0.59580636 0.04289288 0.30828428
Xe   0.95279574 0.83633024 0.59633607
Xe   0.41871688 0.34351090 0.90382576
Xe   0.17345497 0.24707182 0.22227781
Xe   0.27678046 0.14002354 0.23059152
Xe   0.37093878 0.28749263 0.15435550
Xe   0.81770158 0.13886110 0.87394059
Xe   0.99153918 0.30806360 0.39972043
Xe   0.87076217 0.39326075 0.23869924
Xe   0.84499705 0.92767805 0.05462036
Xe   0.82829607 0.74974984 0.08065038
Xe   0.72583872 0.01147734 0.58351970
Xe   0.87205708 0.93179816 0.02138022
Xe   0.77388167 0.92123306 0.88507950
Xe   0.47268984 0.47165981 0.17885521
Xe   0.10910830 0.79099470 0.11497940
Xe   0.55756325 0.72947323 0.98503536
Xe   0.96256626 0.37398469 0.11958505
Xe   0.27399942 0.51918775 0.97248375
Xe   0.36602414 0.21414068 0.38758093
Xe   0.45070630 0.28690407 0.93680108
Xe   0.09407005 0.23889053 0.28660977
Xe   0.31044731 0.06930547 0.10460565
Xe   0.72614771 0.89278990 0.54764563
Xe   0.96259564 0.20128016 0.97851676
Xe   0.80657738 0.99817538 0.45164803
Xe   0.02548558 0.25625369 0.49077401
Xe   0.15853444 0.34973514 0.76662743
Xe   0.20242789 0.03650677 0.37583873
Xe   0.89302528 0.06692172 0.72021776
Xe   0.46280164 0.17520601 0.12205710
Xe   0.66937906 0.19974986 0.29595351
Xe   0.29905826 0.04040612 0.13893467
Xe   0.30876985 0.86890817 0.55869633
Xe   0.35010299 0.89256918 0.79969102
Xe   0.10721012 0.60469395 0.42307240
Xe   0.19139199 0.79056799 0.10129488
Xe   0.85673928 0.60866690 0.18864037
Xe   0.21555327 0.10297234 0.96664214
Xe   0.87839907 0.47686878 0.33806652
Xe   0.63134193 0.79301065 0.17664804
Xe   0.32087991 0.70407593 0.92329317
Xe   0.35704827 0.94780755 0.64287817
Xe   0.11169806 0.53875810 0.54423189
Xe   0.22226310 0.79321665 0.63621247
Xe   0.69820482 0.86215419 0.68148911
Xe   0.93157744 0.22473514 0.95542967
Xe   0.25263390 0.01536198 0.99202472
Xe   0.04482048 0.98237199 0.86724544
Xe   0.37469101 0.87049735 0.53474104
Xe   0.38797823 0.07445556 0.76883459
Xe   0.30927014 0.48847851 0.96904069
Xe   0.45489997 0.18272513 0.81717187
Xe   0.09876398 0.37564743 0.99689525
Xe   0.75865215 0.05740141 0.47377872
Xe   0.39337844 0.55927014 0.94535023
Xe   0.95176572 0.04867569 0.48303413
Xe   0.01414067 0.19998528 0.36677459
Xe   0.45784286 0.96296352 0.70856386
Xe   0.83528543 0.46002060 0.50775456
Xe   0.67176282 0.78756618 0.14430548
Xe   0.69648325 0.10466451 0.34265745
Xe   0.18247499 0.81319892 0.55257505
Xe   0.02895821 0.69532079 0.95972633
Xe   0.01620071 0.05066216 0.22931136
Xe   0.73647732 0.91415536 0.59493822
Xe   0.93949383 0.82410240 0.28248972
Xe   0.43284285 0.52067393 0.04593879
Xe   0.12931137 0.15619482 0.87280756
Xe   0.79042083 0.77741319 0.95682758
Xe   0.33406416 0.98048860 0.20309006
Xe   0.17227781 0.64613008 0.86484700
Xe   0.88911122 0.20431137 0.85841674
Xe   0.05201589 0.02382284 0.41905534
Xe   0.10094173 0.81465566 0.27082109
Xe   0.73376989 0.90874046 0.27394056
Xe   0.93778694 0.78659505 0.38766924
Xe   0.33909655 0.11433196 0.77870810
Xe   0.10331077 0.58409357 0.04395232
Xe   0.87809002 0.99805772 0.61377287
Xe   0.84508532 0.90849030 0.79891109
Xe   0.34618893 0.44192174 0.90974104
Xe   0.11291936 0.11711301 0.95954973
Xe   0.35476753 0.89529139 0.41661271
Xe   0.29682168 0.05821072 0.67801648
Xe   0.39058271 0.06462625 0.17626545
Xe   0.18297529 0.89879340 0.98487347
Xe   0.06212478 0.66932017 0.93300474
Xe   0.60625368 0.03644791 0.07274868
Xe   0.04927899 0.42002648 0.35716599
Xe   0.43349028 0.20665097 0.31197762
Xe   0.41450855 0.04510006 0.21801059
Xe   0.13825780 0.36442026 0.21905532
Xe   0.28987640 0.00846086 0.49886698
Xe   0.60082406 0.63822836 0.93683052
Xe   0.13914068 0.33145967 0.81761330
Xe   0.32252797 0.04111242 0.45659214
Xe   0.93376988 0.79192173 0.85475284
Xe   0.07242496 0.15285462 0.21364038
Xe   0.19945557 0.25684226 0.36827546
Xe   0.99311358 0.22469100 0.00813714
Xe   0.21690701 0.72906125 0.06365509
Xe   0.83388764 0.51759857 0.43382871
Xe   0.00968217 0.00225132 0.23419659
Xe   0.10064744 0.83415246 0.95242786
Xe   0.05567981 0.23269571 0.24399649
Xe   0.21812832 0.92920834 0.50104469
Xe   0.76537669 0.87463212 0.51225722
Xe   0.19660094 0.98618311 0.10713656
Xe   0.34034726 0.82346970 0.78466749
Xe   0.15132432 0.76652443 0.10710712
Xe   0.91840792 0.91558272 0.63909650
Xe   0.41899648 0.15797529 0.53209239
Xe   0.36146262 0.88379931 0.19811654
Xe   0.63775748 0.72825193 0.08397587
Xe   0.47532374 0.89008242 0.41275752
Xe   0.71818715 1.00253093 0.87917894
Xe   0.21321365 0.22884050 0.11806946
Xe   0.33587405 0.85544443 0.51414073
Xe   0.22680989 0.94053853 0.07436728
Xe   0.20226605 0.55773985 0.80538553
Xe   0.36806947 0.45785755 0.86196291
Xe   0.57083577 0.99863154 0.80459094
Xe   0.65710717 0.12486757 0.31489110
Xe   0.89270157 0.86034435 0.84523255
Xe   0.30495882 0.95882875 0.71640670
Xe   0.13818422 0.01518540 0.59848440
Xe   0.09892584 0.40216303 0.25656271
Xe   0.61606830 0.69479102 0.80002940
Xe   0.96446437 0.75291348 0.46568573
Xe   0.91155094 0.03449088 0.83633024
Xe   0.68509418 0.20660684 0.10957917
Xe   0.13630076 0.67985576 0.86795175
Xe   0.06269865 0.83942026 0.08315185
Xe   0.09792525 0.03197469 0.58318126
Xe   0.01998234 0.82847267 0.70485580
Xe   0.74994117 0.95192760 0.79162741
Xe   0.10641554 0.41253677 0.29813126
Xe   0.52498531 0.19668922 0.42460272
Xe   0.08316657 0.37288111 0.87313128
Xe   0.82658917 0.26074159 0.24278988
Xe   0.13484402 0.97635370 0.95385516
Xe   0.00032372 0.37689817 0.37969396
Xe   0.17111535 0.13658033 0.32588285
Xe   0.15765156 0.31765744 0.54738081
Xe   0.78665388 0.83371103 0.18278399
Xe   0.78147441 0.29136258 0.86135960
Xe   0.58949381 0.25806358 0.88098884
Xe   0.92395526 0.27604473 0.59145087
Xe   0.23247498 0.35011774 0.83543265
Xe   0.20182461 0.36905533 0.21199234
Xe   0.30185404 0.93990582 0.44327545
Xe   0.95300174 0.32051206 0.50977045
Xe   0.82249850 0.35303122 0.66394943
Xe   0.91012365 0.05295762 0.45481166
Xe   0.60073572 0.33129781 0.01184520
Xe   0.39430550 0.05360506 0.87806064
Xe   0.78731608 0.05266333 0.12944379
Xe   0.33060625 0.30451736 0.82342553
Xe   0.02426427 0.87267512 0.12761919
Xe   0.83647734 0.89327550 0.29290760
Xe   0.89866102 0.68218070 0.56275749
Xe   0.95008832 0.60874045 0.61271334
Xe   0.97433794 0.60606241 0.06487640
Xe   0.95226610 0.11653914 0.58943492
Xe   0.50360507 0.17711890 0.91366976
Xe   0.12251325 0.13618305 0.06094762
Xe   0.08487346 0.08861095 0.36237493
Xe   0.34487933 0.20831370 0.93228376
Xe   0.84512949 0.05048558 0.41884932
Xe   0.64365804 0.10426722 0.68766922
Xe   0.53590345 0.71007949 0.93241614
Xe   0.53890526 0.04627722 0.29201001
Xe   0.82310182 0.01394938 0.72020304
Xe   0.72261626 0.05270747 0.59304005
Xe   0.17210124 0.30307534 0.26987934
Xe   0.13541789 0.94520307 0.56390530
Xe   0.85010302 0.69274575 0.54673338
Xe   0.50567985 0.81840789 0.39148027
Xe   0.85214829 0.63781637 0.50070632
Xe   0.91427308 0.19457033 0.70060331
Xe   0.17822249 0.66437614 0.91586226
Xe   0.10491466 0.62149793 0.38191584
Xe   0.87738377 0.98889059 0.19359918
Xe   0.10538553 0.57641262 0.63638908
Xe   0.49829310 0.89081818 0.68946439
Xe   0.77002650 0.13153327 0.10584167
Xe   0.14610064 0.42314598 0.27012950
Xe   0.22942908 0.07087993 0.48833138
Xe   0.75793111 0.66053563 0.11241907
Xe   0.46571514 0.27451444 0.00295762
Xe   0.29070044 0.93596238 0.31281638
Xe   0.62991464 0.46356681 0.96826077
Xe   0.23728663 0.53368157 0.93972921
Xe   0.11174220 0.81715715 0.48004711
Xe   0.10041200 0.81684816 0.55423778
Xe   0.80025011 0.06024132 0.66653913
Xe   0.38104767 0.94623309 0.76071221
Xe   0.84876400 0.56069750 0.42155680
Xe   0.31854033 0.94464391 0.59586519
Xe   0.87261629 0.44523248 0.46726015
Xe   0.22742790 0.95796055 0.12505886
Xe   0.80045611 0.09562978 0.16403767
Xe   0.62223363 0.41158035 0.99902880
Xe   0.28534433 0.11406710 0.70270747
Xe   0.76135963 0.15179518 0.86642146
Xe   0.70563573 0.49932310 0.99206883
Xe   0.41986462 0.49501175 0.08602119
Xe   0.69493824 0.67507356 0.80414951
Xe   0.75788701 0.99364334 0.71277219
Xe   0.79957330 0.10104474 0.10909358
Xe   0.24217187 0.63338727 0.03366686
Xe   0.34404063 0.80022073 0.74245149
Xe   0.02770748 0.88872868 0.97835493
Xe   0.42511773 0.68378460 0.89515889
Xe   0.13862565 0.83132726 0.63532960
Xe   0.41393468 0.04024426 0.97008538
Xe   0.68057680 0.15590054 0.12439671
Xe   0.74125957 0.16442025 0.39445260
Xe   0.84454089 0.63875812 0.56973225
Xe   0.29127428 0.52397001 0.11540612
Xe   0.32135081 0.57476461 0.00638611
Xe   0.12912007 0.33360803 0.59916133
Xe   0.92020303 0.53487343 0.29585052
Xe   0.97901702 0.88869923 0.61958504
Xe   0.34150970 0.93980283 0.23594762
Xe   0.26983520 0.05535609 0.46846676
Xe   0.02196881 0.90698940 0.48703650
Xe   0.34377578 0.87757504 0.45731315
Xe   0.60937315 0.00120659 0.20105945
Xe   0.73630077 0.84627724 0.24565920
Xe   0.25747499 0.96987939 0.69205415
Xe   0.95656276 0.39908770 0.83744848
Xe   0.57950264 0.94293702 0.62803119
Xe   0.44158331 0.04795468 0.15556209
Xe   0.23147440 0.18481460 0.96211010
Xe   0.87994409 0.36521482 0.76645088
Xe   0.61440557 0.87482345 0.94434965
Xe   0.03140083 0.58178335 0.02098293
Xe   0.19256915 0.75075042 0.21726017
Xe   0.25166276 0.08947910 0.81431723
Xe   0.41249266 0.04208358 0.11589170
Xe   0.56240439 0.59443790 0.85039729
Xe   0.90963805 0.42167452 0.84951442
Xe   0.36434668 0.66378754 0.17391112
Xe   0.35541496 0.26904061 0.21025603
Xe   0.89951444 0.83887577 0.29599765
Xe   0.50876987 0.50779867 0.82185113
Xe   0.96275753 0.33999413 0.15623897
Xe   0.37416127 0.07032078 0.32550031
Xe   0.86815774 0.13709536 0.61899650
Xe   0.40713656 0.45517951 0.85014719
Xe   0.06446439 0.20180990 0.05740141
Xe   0.21347852 0.70438492 0.19998528
Xe   0.44278985 0.93468219 0.17523544
Xe   0.72913474 0.95198643 0.72625071
Xe   0.22688346 0.17255740 0.48675695
Xe   0.31134492 0.09096528 0.94645381
Xe   0.02449971 0.14046498 0.45662153
Xe   0.39501175 0.93674219 0.44907299
Xe   0.14130370 0.73020893 0.67906117
Xe   0.12161566 0.28135669 0.99161273
Xe   0.91041791 0.61230135 0.64471745
Xe   0.75270748 0.96784878 0.26244852
Xe   0.08004709 0.74842554 0.84243673
Xe   0.24935254 0.94252503 0.64649796
Xe   0.83435845 0.47313124 0.58640379
Xe   0.12192467 0.15598881 0.14476164
Xe   0.63878751 0.57338136 0.93163627
Xe   0.13477047 0.61502355 0.19564450
Xe   0.76471454 0.14720424 0.22975281
Xe   0.63443202 0.19741026 0.07054150
Xe   0.81514126 0.44033253 0.72435260
Xe   0.96266919 0.29757211 0.29991171
Xe   0.95737207 0.93590349 0.66069752
Xe   0.99920541 0.93621248 0.64034730
Xe   0.63347554 0.70582694 0.98334318
Xe   0.93534434 0.73663920 0.42628017
Xe   0.68328428 0.58037084 0.18190113
Xe   0.73725724 0.62101233 0.13300471
Xe   0.37401411 0.83047378 0.97783995
Xe   0.89770454 0.60632730 0.58120954
Xe   0.43715420 0.07523543 -.00180989
Xe   0.51066810 0.78544736 0.96739262
Xe   0.12308711 0.08964097 0.90744555
Xe   0.68780166 0.25201592 0.83285761
Xe   0.62304294 0.89663041 0.69907296
Xe   0.45916715 0.02111536 0.63475573
Xe   0.35925546 0.07005592 0.46801060
Xe   0.19802825 0.13247499 0.65977049
Xe   0.07305768 0.94245148 0.62820780
Xe   0.90036786 0.77389646 0.68228370
Xe   0.57704532 0.45672455 0.15560624
Xe   0.78029722 0.93118012 0.15938787
Xe   0.31249264 0.88596231 0.08122425
Xe   0.43788996 0.36836377 0.08009123
Xe   0.36980578 0.29986757 0.99760151
Xe   0.04218658 0.66936439 0.00934373
Xe   0.85818130 0.17997351 0.84440851
Xe   0.18260741 0.85819602 0.79896998
Xe   0.92299885 0.76514125 0.14690995
Xe   0.06509712 0.87913477 0.62753087
Xe   0.39963216 0.09549735 0.64149499
Xe   0.04387875 0.37725133 0.62997353
Xe   0.21209535 0.90581220 0.79256916
Xe   0.76294875 0.73944968 0.15254562
Xe   0.82107121 0.77142435 0.75066215
Xe   0.28243086 0.90679812 0.61455268
Xe   0.78000295 0.60248673 0.93962622
Xe   0.01818717 0.64629197 0.55183929
Xe   0.95722485 0.15213360 0.55067688
Xe   0.07186580 0.63301945 0.89876401
Xe   0.91424370 0.83399063 0.62494117
Xe   0.50640082 0.21361095 0.07530901
Xe   0.83640379 0.14782225 0.42551500
Xe   0.02079164 0.38419661 0.49596825
Xe   0.87352860 0.36525899 0.39589465
Xe   0.41160977 0.94083285 0.09273102
Xe   0.65765154 0.94036204 0.24480575
Xe   0.79888171 0.17426428 0.83541793
Xe   0.28384346 0.09201001 0.13362272
Xe   0.97964984 0.26116833 0.47448498
Xe   0.81858450 0.95904946 0.33468220
Xe   0.64771926 0.10560624 0.05949088
Xe   0.10348735 0.22583872 0.66781926
Xe   0.18984698 0.90981460 0.55437022
Xe   0.92922312 0.44660094 0.57847261
Xe   0.62224835 0.09623308 0.20847557
Xe   0.67836964 0.50341380 0.10432608
Xe   0.67957622 0.02507357 0.77076221
Xe   0.85437024 0.02133608 0.78502059
Xe   0.94562978 0.99161273 0.72483814
Xe   0.75984401 0.41820189 0.84723365
Xe   0.15439965 0.09604179 0.42560330
Xe   0.40991759 0.40734255 0.17018835
Xe   0.14638023 0.03899353 0.41995293
Xe   0.95107418 0.91060919 0.93453503
Xe   0.47753090 0.27867863 0.09145086
Xe   0.90726900 0.58421129 0.26886404
Xe   0.06818717 0.34922013 0.77014422
Xe   0.04816068 0.64952910 0.76845205
Xe   0.55373752 0.19964685 0.56153619
Xe   0.32635376 0.25576809 0.11022661
Xe   0.33185697 0.89902884 0.51449382
Xe   0.35673925 0.77745730 0.21143320
Xe   0.18125367 0.83534431 0.84770453
Xe   0.11494997 0.64792526 0.27864921
Xe   0.13512360 0.26224250 0.44483522
Xe   0.24698351 0.88372570 0.60426724
Xe   0.99114186 0.05548852 0.36973220
Xe   0.60437024 0.05248675 0.17839906
Xe   0.84938198 0.55122131 0.78822839
Xe   0.23769864 0.84454089 0.68718362
Xe   0.34468806 0.15332548 0.91762799
Xe   0.25448793 0.25272217 0.96781933
Xe   0.04256916 0.01902590 0.64540905
Xe   0.98090059 0.61181575 0.56999707
Xe   0.18187168 0.69665980 0.59941143
Xe   0.25800472 0.09720424 0.92898762
Xe   0.71858448 0.14699823 0.73154795
Xe   0.40676868 0.00648911 0.17951736
Xe   0.96658331 0.88429958 0.28931725
Xe   0.32964981 0.04095056 0.62279284
Xe   0.42945853 0.63293111 0.15469393
Xe   0.92992944 0.18349029 0.47214541
Xe   0.09158328 0.51927608 0.16143319
Xe   0.54664510 0.99364334 0.23541789
Xe   0.50141263 0.96480286 0.02492643
Xe   0.42289582 0.11024132 0.57580930
Xe   0.49270162 0.92976755 0.79774868
Xe   0.13658033 0.24457034 0.19395232
Xe   0.49433494 0.13506475 0.14499706
Xe   0.98338729 0.68319601 0.46932021
Xe   0.38658035 0.33273986 0.03768393
Xe   0.67158622 0.50809300 0.16562684
Xe   0.55385518 0.18478516 0.90019125
Xe   0.71759862 0.15931430 0.31050617
Xe   0.62797230 0.33343142 0.15921129
Xe   0.00098587 0.17249852 0.32198352
Xe   0.06933490 0.95450258 0.36525899
Xe   0.88678634 0.43475574 0.09445262
Xe   0.67204237 0.95155972 0.02731018
Xe   0.31806946 0.15660682 0.69689524
Xe   0.66736317 0.39749852 0.86667156
Xe   0.63721305 0.45659214 0.80172163
Xe   0.88409358 0.28978813 0.81518543
Xe   0.76572984 0.77321953 0.79664510
Xe   0.63031191 0.16472925 0.38881695
Xe   0.57856095 0.14813127 0.38663918
Xe   0.98824316 0.16082990 0.65821069
Xe   0.21233079 0.94246620 0.34655681
Xe   0.37432313 0.01880518 0.47057092
Xe   0.51606828 0.43580049 0.91171277
Xe   0.06244850 0.78684521 0.80775458
Xe   0.40182462 0.29745439 0.07692761
Xe   0.22970866 0.37642732 0.45912302
Xe   0.74239260 0.27610359 0.88787526
Xe   0.04487934 0.86038846 0.88282818
Xe   -.00258976 0.33936140 0.10743085
Kr        0.7151413      0.3011017      0.7115784
Kr        0.6788406      0.6549149      0.5670700
Kr        0.6256790      0.6470718      0.3146591
Kr        0.2855682      0.3490448      0.7244873
Kr        0.2918015      0.5870209      0.2750015
Kr        0.5925217      0.4650497      0.6188202
Kr        0.5484238      0.3107529      0.2739563
Kr        0.6728363      0.3535461      0.5482635
Kr        0.5603714      0.3946609      0.6486206
Kr        0.2427597      0.4670563      0.5036163
Kr        0.2766647      0.2814026      0.4168015
Kr        0.3639221      0.6016159      0.4088135
Kr        0.7353897      0.3477936      0.6846848
Kr        0.4433212      0.4864044      0.6769257
Kr        0.4840622      0.5245590      0.6619644
Kr        0.3627167      0.4385071      0.4111099
Kr        0.4241791      0.4542694      0.5534744
Kr        0.7193375      0.4691162      0.7155228
Kr        0.5694199      0.6498642      0.4172592
Kr        0.6556778      0.4171600      0.6583710
Kr        0.2486572      0.5167618      0.4159622
Kr        0.7382889      0.3357544      0.5290146
Kr        0.3955231      0.4692154      0.5960236
Kr        0.3216782      0.6956177      0.3045044
Kr        0.3841248      0.3912125      0.4086685
Kr        0.5544281      0.4157562      0.3491135
Kr        0.7218933      0.5447617      0.4523544
Kr        0.4807663      0.5878754      0.2285004
Kr        0.3020630      0.6524124      0.3516617
Kr        0.3157578      0.5881271      0.6058273
Kr        0.7028427      0.4873581      0.4328613
Kr        0.6303253      0.6271210      0.6255188
Kr        0.4778290      0.5892715      0.4858627
Kr        0.5402298      0.5925217      0.4845047
Kr        0.2931137      0.5734253      0.4341660
Kr        0.6877899      0.7353745      0.4381561
Kr        0.6620941      0.3346939      0.3464508
Kr        0.5486755      0.6262665      0.3494110
Kr        0.2742081      0.7708359      0.2400513
Kr        0.6663361      0.6013718      0.6025772
Kr        0.7225876      0.5158615      0.2427444
Kr        0.3101120      0.7068100      0.3467636
Kr        0.2440567      0.4639664      0.4259109
Kr        0.4981766      0.4631577      0.2320023
Kr        0.7264862      0.7694855      0.4168625
Kr        0.5518799      0.4388199      0.6060791
Kr        0.2808151      0.5226135      0.6658325
Kr        0.6716461      0.5240555      0.4637146
Kr        0.7390366      0.5804138      0.4235611
Kr        0.6498795      0.6732635      0.6309128
Kr        0.4787674      0.3489532      0.2382431
Kr        0.6368713      0.6687164      0.5820160
Kr        0.6320801      0.7253799      0.3341675
Kr        0.3122101      0.2871552      0.7151260
Kr        0.6806335      0.5302505      0.6838760
Kr        0.4309769      0.3913040      0.6269684
Kr        0.2954559      0.2814026      0.6624222
Kr        0.3863754      0.4346542      0.3208923
Kr        0.5483398      0.5612717      0.5260773
Kr        0.2914047      0.5668182      0.5034103
Kr        0.6808853      0.5290146      0.5343170
Kr        0.3659668      0.7006149      0.4097595
Kr        0.4905853      0.5865631      0.6766357
Kr        0.4023666      0.3576508      0.5464249
Kr        0.4802704      0.2988968      0.2513962
Kr        0.4817657      0.3408508      0.4933624
Kr        0.3473663      0.3818130      0.5950699
Kr        0.5374756      0.7193375      0.4734573
Kr        0.4267654      0.2849045      0.2539444
Kr        0.6045303      0.3863602      0.2855072
Kr        0.4396286      0.7338257      0.4266663
Kr        0.2570038      0.7665863      0.2960587
Kr        0.5107269      0.4713058      0.4965744
Kr        0.3321686      0.4289551      0.5927200
Kr        0.6165237      0.6803284      0.3598557
Kr        0.6728973      0.4018097      0.4164047
Kr        0.6850967      0.7283249      0.4867554
Kr        0.5390244      0.3198471      0.6805801
Kr        0.6994858      0.5790176      0.6804733
Kr        0.5067825      0.5523224      0.4152145
Kr        0.6404343      0.6419220      0.3631134
Kr        0.5706711      0.5912781      0.6135254
Kr        0.5394363      0.2940979      0.5390701
Kr        0.5707321      0.4595642      0.4057541
Kr        0.6919327      0.3209991      0.2702026
Kr        0.2974091      0.5319595      0.2876968
Kr        0.3682175      0.4670563      0.6570663
Kr        0.5042801      0.7782364      0.2916565
Kr        0.4247208      0.5729675      0.4768066
Kr        0.6712341      0.3495407      0.5968628
Kr        0.2827530      0.7314301      0.2766495
Kr        0.6798401      0.4031067      0.2966461
Kr        0.2964096      0.4551620      0.6035156
Kr        0.3169632      0.3463974      0.3560028
Kr        0.6693344      0.7125626      0.6555176
Kr        0.3415222      0.4573593      0.2965546
Kr        0.6317215      0.3670959      0.3670120
Kr        0.4164200      0.3589020      0.4019165
Kr        0.4417191      0.4641571      0.4789581
Kr        0.2885056      0.3264542      0.2727509
Kr        0.4264297      0.6722183      0.3466568
Kr        0.5764236      0.4373627      0.6535187
Kr        0.3508682      0.6372147      0.2811966
Kr        0.6595917      0.7050781      0.5593109
Kr        0.3631287      0.6783218      0.6483688
Kr        0.3735123      0.5906677      0.6051178
Kr        0.6066818      0.6986160      0.2952499
Kr        0.5178375      0.7601242      0.4513550
Kr        0.4142151      0.4220123      0.6656876
Kr        0.2991180      0.5865250      0.7243805
Kr        0.3630219      0.7262802      0.3603592
Kr        0.4923782      0.7132111      0.5303726
Kr        0.7038422      0.7355804      0.6844788
Kr        0.4224243      0.4016647      0.2889023
Kr        0.3963623      0.3827133      0.5854187
Kr        0.4383163      0.3213959      0.7238846
Kr        0.4212799      0.4571075      0.2996445
Kr        0.5451736      0.4764099      0.6761322
Kr        0.6862869      0.7253265      0.2769547
Kr        0.7002945      0.4769592      0.5238266
Kr        0.5254822      0.4948044      0.2689514
Kr        0.4653168      0.7505722      0.2505417
Kr        0.4177780      0.6500168      0.2908478
Kr        0.7378464      0.5901718      0.2477951
Kr        0.4781189      0.5779724      0.2733536
Kr        0.5889816      0.6779709      0.5739288
Kr        0.5738220      0.6174698      0.3052521
Kr        0.2464523      0.5912170      0.5156250
Kr        0.4489670      0.5821686      0.5254745
Kr        0.2905121      0.4703674      0.4720154
Kr        0.4868317      0.5276642      0.2903061
Kr        0.3695679      0.4595642      0.5470123
Kr        0.6135254      0.4547119      0.5454254
Kr        0.6145248      0.5912781      0.5602264
Kr        0.3638153      0.7199860      0.5647736
Kr        0.3005142      0.3359070      0.4871063
Kr        0.6371841      0.4224091      0.2878036
Kr        0.6001740      0.6280746      0.5845642
Kr        0.5468369      0.3366547      0.4817505
Kr        0.6661453      0.4310608      0.5965729
Kr        0.5675278      0.6046219      0.5529099
Kr        0.4083099      0.4534149      0.3936615
Kr        0.4019699      0.5998688      0.3503113
Kr        0.6127243      0.3933029      0.6625366
Kr        0.6682434      0.6515732      0.4089203
Kr        0.5488205      0.4831696      0.4720535
Kr        0.7418365      0.4986572      0.5418167
Kr        0.6242752      0.3389969      0.6130219
Kr        0.2651596      0.5951767      0.4674683
Kr        0.6084290      0.6671143      0.6711731
Kr        0.4411240      0.5816193      0.6799316
Kr        0.3061066      0.6506195      0.6532211
Kr        0.7421875      0.3237915      0.2988968
Kr        0.3979263      0.3443909      0.3610687
Kr        0.3160553      0.4419632      0.3924637
Kr        0.6891403      0.5927200      0.2271500
Kr        0.3089142      0.7133179      0.5444260
Kr        0.3163071      0.6052246      0.6483688
Kr        0.3408203      0.6824188      0.3753510
Kr        0.3056030      0.7110672      0.4088135
Kr        0.6332245      0.3527985      0.2995453
Kr        0.3106079      0.4547119      0.5544128
Kr        0.2849045      0.5722198      0.6811829
Kr        0.5371246      0.3463516      0.2330933
Kr        0.6785431      0.7749863      0.6937790
Kr        0.4344177      0.7334290      0.2779007
Kr        0.2988663      0.2936020      0.4583588
Kr        0.2817078      0.4707031      0.2311478
Kr        0.7402420      0.2967453      0.2571945
Kr        0.6185837      0.6298676      0.4131546
Kr        0.4473190      0.4883575      0.5176697
Kr        0.4540176      0.3202438      0.6799316
Kr        0.5092850      0.5601273      0.4724579
Kr        0.3414688      0.6676102      0.5792694
Kr        0.4279099      0.6157150      0.5970154
Kr        0.5013809      0.5788727      0.5311661
Kr        0.3937149      0.6797256      0.5796204
Kr        0.3085632      0.4060059      0.6594772
Kr        0.3290176      0.3905106      0.4009552
Kr        0.4389191      0.6579742      0.6437149
Kr        0.2991180      0.6752243      0.6108704
Kr        0.6192780      0.4597549      0.6582718
Kr        0.4704208      0.7574768      0.4612579
Kr        0.7422485      0.4636078      0.2737045
Kr        0.5658340      0.4641113      0.3573151
Kr        0.4472656      0.3267059      0.5306625
Kr        0.4104767      0.3507538      0.3036957
Kr        0.6019287      0.3329010      0.3411560
Kr        0.4148788      0.6064148      0.6428223
Kr        0.5639801      0.3477936      0.6248703
Kr        0.5704803      0.3495407      0.3001480
Kr        0.6095352      0.4223633      0.6201172
Kr        0.2720108      0.7137756      0.4853134
Kr        0.3002625      0.2818985      0.5323715
Kr        0.5550308      0.5255585      0.4252625
Kr        0.6675415      0.6992188      0.3532104
Kr        0.6154327      0.5831223      0.3925552
Kr        0.4215164      0.7099762      0.5458221
Kr        0.5498199      0.4934692      0.7231293
Kr        0.3030624      0.3619461      0.5971756
Kr        0.6723938      0.4548111      0.4054184
Kr        0.2909622      0.4775162      0.4223633
Kr        0.3722153      0.3438492      0.6144638
Kr        0.6293259      0.4076691      0.3421097
Kr        0.6761932      0.7002182      0.6057663
Kr        0.5364304      0.7723389      0.6583710
Kr        0.4809189      0.7627869      0.4057083
Kr        0.4987335      0.3473511      0.6863708
Kr        0.7349930      0.7218399      0.2787552
Kr        0.6550751      0.6936722      0.3092575
Kr        0.3079605      0.5315018      0.7033844
Kr        0.5679398      0.7020187      0.6545792
Kr        0.6936417      0.3141556      0.5280151
Kr        0.6798401      0.6558304      0.3107529
Kr        0.6668930      0.4495621      0.3082581
Kr        0.4845200      0.3036957      0.4582520
Kr        0.5933380      0.6293716      0.3737640
Kr        0.6242752      0.7211304      0.5973206
Kr        0.6974869      0.4858170      0.2697449
Kr        0.4465103      0.4741135      0.2262497
Kr        0.7185822      0.7744827      0.4970093
Kr        0.6106796      0.5945282      0.2911530
Kr        0.5957794      0.4294128      0.3168488
Kr        0.4255142      0.7757339      0.4703674
Kr        0.4756165      0.2819443      0.4965744
Kr        0.3551178      0.4569168      0.3638153
Kr        0.2966156      0.7492371      0.4523087
Kr        0.3064575      0.7375336      0.2358475
Kr        0.5349350      0.7137756      0.2302551
Kr        0.5983353      0.4337540      0.3736572
Kr        0.3749237      0.6841202      0.3405533
Kr        0.4233704      0.3463974      0.6000137
Kr        0.5411835      0.7383347      0.2744980
Kr        0.4064178      0.6017227      0.5564728
Kr        0.4683609      0.5389023      0.5444260
Kr        0.3685684      0.5977173      0.6580658
Kr        0.5675812      0.7060776      0.5469666
Kr        0.4109802      0.4722595      0.3516617
Kr        0.4430695      0.5471191      0.2742462
Kr        0.5631866      0.3499985      0.3975143
Kr        0.3021011      0.3985138      0.3581696
Kr        0.7381439      0.2898483      0.5446167
Kr        0.2488632      0.4785614      0.6720886
Kr        0.7007980      0.5270157      0.2921982
Kr        0.3777695      0.6922150      0.5345230
Kr        0.2886581      0.4777679      0.2783585
Kr        0.5383301      0.7714844      0.2505417
Kr        0.4593124      0.5480118      0.4971771
Kr        0.5511780      0.6349792      0.5818710
Kr        0.5721741      0.6517181      0.5407181
Kr        0.2776642      0.5288544      0.4612579
Kr        0.2845078      0.5344620      0.5381241
Kr        0.6631393      0.4518509      0.5498199
Kr        0.4199219      0.6565628      0.4142609
Kr        0.4843140      0.5050049      0.4843140
Kr        0.4704208      0.5441132      0.4447632
Kr        0.5174332      0.3066940      0.7134323
Kr        0.4781647      0.4685516      0.2766495
Kr        0.4977798      0.3012085      0.6608124
Kr        0.2660522      0.2902451      0.4992218
Kr        0.5453339      0.5762177      0.4343567
Kr        0.4621658      0.7703781      0.6576691
Kr        0.3200684      0.7117691      0.5941162
Kr        0.4063721      0.6998215      0.3881531
Kr        0.6855392      0.7711716      0.5342712
Kr        0.3655243      0.4144058      0.2846527
Kr        0.7249832      0.7059174      0.4634628
Kr        0.6407776      0.3842087      0.6028290
Kr        0.7135925      0.3363037      0.4334183
Kr        0.3630219      0.3815002      0.5446167
Kr        0.6713943      0.4828568      0.7243805
Kr        0.4235764      0.6056213      0.3035431
Kr        0.3176727      0.3557510      0.3046036
Kr        0.3053589      0.5940247      0.5463181
Kr        0.4462738      0.5789719      0.4230576
Kr        0.5838699      0.3858185      0.3284149
Kr        0.3456116      0.6047211      0.5640640
Kr        0.3557205      0.3796082      0.3564606
Kr        0.2606506      0.7407761      0.5294724
Kr        0.6185837      0.3387985      0.6565628
Kr        0.4426117      0.5012054      0.2814484
Kr        0.5300751      0.5555191      0.6912766
Kr        0.2483673      0.7610779      0.7042236
Kr        0.3411713      0.6336212      0.3691177
Kr        0.6122284      0.3804169      0.5329132
Kr        0.6688919      0.6040726      0.5513687
Kr        0.5484848      0.5029144      0.5217590
Kr        0.6180878      0.7150650      0.6522217
Kr        0.6205826      0.6773682      0.4156113
Kr        0.4249725      0.3817062      0.3528519
Kr        0.6205292      0.7186737      0.3889618
Kr        0.7115326      0.7289276      0.5256805
Kr        0.3839722      0.3880081      0.6346207
Kr        0.5543289      0.5927734      0.6658783
Kr        0.5604324      0.4522095      0.3081512
Kr        0.4936752      0.7313309      0.6604767
Kr        0.6682892      0.3730392      0.3259125
Kr        0.6884918      0.3211441      0.6762390
Kr        0.4786606      0.5086060      0.2421570
Kr        0.2660522      0.7170258      0.2310028
Kr        0.3107529      0.6297684      0.5941162
Kr        0.4566193      0.7337265      0.5100632
Kr        0.4918747      0.7180710      0.4275131
Kr        0.3613129      0.3431015      0.3951111
Kr        0.5790329      0.6654663      0.3293076
Kr        0.5511322      0.3569031      0.3523102
Kr        0.4312668      0.3222504      0.4821091
Kr        0.5158310      0.5479584      0.2461014
Kr        0.6241302      0.5853729      0.6086197
Kr        0.6558838      0.6034698      0.3917160
Kr        0.5280304      0.2836533      0.4111557
Kr        0.5073242      0.5153656      0.7048264
Kr        0.5356827      0.5971146      0.7252808
Kr        0.3672714      0.7179260      0.3132401
Kr        0.2522659      0.5968246      0.7015762
Kr        0.5588760      0.2889938      0.4503555
Kr        0.5088730      0.7514267      0.7216721
Kr        0.6073837      0.6135254      0.6650238
Kr        0.5072861      0.5308151      0.5225143
Kr        0.5824280      0.6962738      0.3968048
Kr        0.7271347      0.5475540      0.5494690
Kr        0.4347229      0.4256592      0.5945282
Kr        0.6897430      0.5311050      0.4117126
Kr        0.6440811      0.4216156      0.3852539
Kr        0.3183212      0.6985168      0.6502686
Kr        0.5341797      0.7348328      0.5188675
Kr        0.4853134      0.7129669      0.4768066
Kr        0.5395813      0.5249100      0.6619186
Kr        0.5593262      0.4597549      0.5563736
Kr        0.6868439      0.5796661      0.4309998
Kr        0.6150208      0.4678650      0.3000031
Kr        0.2865677      0.3309021      0.5311661
Kr        0.3040619      0.4113617      0.6178207
Kr        0.7259827      0.5185089      0.6717758
Kr        0.4466171      0.3320007      0.4365082
Kr        0.6618423      0.6100616      0.2942429
Kr        0.3607254      0.3391571      0.3334198
Kr        0.6229858      0.4641571      0.3526077
Kr        0.6693344      0.7005157      0.4034119
Kr        0.6813431      0.4769135      0.4817505
Kr        0.6618423      0.3596497      0.6451111
Kr        0.2486191      0.3037949      0.6712341
Kr        0.2967606      0.7387695      0.6785736
Kr        0.7387848      0.3431396      0.2453918
Kr        0.3381271      0.4173050      0.5502625
Kr        0.3200302      0.3701477      0.5492172
Kr        0.6602402      0.3939056      0.5533676
Kr        0.3131104      0.6589737      0.4069138
Kr        0.4234238      0.5160065      0.7169342
Kr        0.5537796      0.6765747      0.3683014
Kr        0.4802246      0.7141266      0.7210846
Kr        0.3667145      0.7064133      0.6119614
Kr        0.4423218      0.2883453      0.4250565
Kr        0.4676132      0.5505142      0.7067871
Kr        0.6022339      0.6761780      0.6194687
Kr        0.4909821      0.3238983      0.5369644
Kr        0.4833145      0.3218079      0.4122162
Kr        0.3002090      0.6517181      0.5557251
Kr        0.5299759      0.3353424      0.5228195
Kr        0.5597839      0.7771759      0.7089767
Kr        0.4208221      0.4627609      0.6435242
Kr        0.4349747      0.7196274      0.4724121
Kr        0.3249283      0.3453064      0.6408157
Kr        0.3565216      0.5924683      0.3562546
Kr        0.3177185      0.6086197      0.3975601
Kr        0.6624908      0.6051178      0.6512680
Kr        0.5614777      0.4063568      0.4075012
Kr        0.4221191      0.5717163      0.2286911
Kr        0.3902740      0.3871078      0.3179550
Kr        0.3644180      0.6514282      0.4174652
Kr        0.5518799      0.6573105      0.6539154
Kr        0.4816666      0.5024109      0.4116135
Kr        0.4341202      0.5168076      0.4670563
Kr        0.2457657      0.4983063      0.4628143
Kr        0.4348755      0.5397568      0.6704254
Kr        0.5588760      0.3987045      0.5486755
Kr        0.4136276      0.7196732      0.3456573
Kr        0.5510712      0.7307816      0.4221573
Kr        0.5058823      0.3372574      0.2755432
Kr        0.3506775      0.4686127      0.6003265
Kr        0.2483063      0.5114059      0.2779465
Kr        0.7266922      0.7502365      0.2432480
Kr        0.3481750      0.6223679      0.6213684
Kr        0.6682892      0.3555450      0.3967056
Kr        0.3248672      0.4526596      0.6421127
Kr        0.4341660      0.4296646      0.3493652
Kr        0.2989578      0.4046021      0.5601654
Kr        0.6854477      0.6096649      0.3437576
Kr        0.7279434      0.5558701      0.7168808
Kr        0.7399979      0.2939529      0.4567108
Kr        0.6202774      0.3441010      0.5578156
Kr        0.3104630      0.3479538      0.4103165
Kr        0.3607712      0.3375931      0.5637741
Kr        0.6885376      0.4752045      0.6754837
Kr        0.4311218      0.7772827      0.6935883
Kr        0.4847717      0.4737015      0.4504547
Kr        0.4156723      0.6960297      0.3046036
Kr        0.5681305      0.3542938      0.5571213
Kr        0.6806335      0.7763824      0.4772034
Kr        0.3740158      0.5891724      0.3054428
Kr        0.6550751      0.4618149      0.6317673
Kr        0.5284882      0.4774170      0.4216614
Kr        0.5981293      0.6459274      0.2790451
Kr        0.6869354      0.2920990      0.4317093
Kr        0.4360657      0.6344147      0.3694687
Kr        0.5157776      0.5178604      0.4522095
Kr        0.2537689      0.7481308      0.4630051
Kr        0.3644180      0.3580017      0.2847595
Kr        0.4974213      0.5925217      0.4327545
Kr        0.5622864      0.4021606      0.2921982
Kr        0.3604202      0.3596954      0.6658783
Kr        0.4482651      0.7249832      0.6836243
Kr        0.6129761      0.3492966      0.4057541
Kr        0.5623322      0.6986160      0.3039017
Kr        0.2940140      0.5320053      0.4125671
Kr        0.4443665      0.4747620      0.4184113
Kr        0.2874069      0.3274536      0.6746292
Kr        0.5483780      0.3900528      0.5998230
Kr        0.6749420      0.5622101      0.4866562
Kr        0.3167191      0.5152588      0.4929199
Kr        0.5216751      0.2866516      0.4933624
Kr        0.7122879      0.5157166      0.4929657
Kr        0.3900223      0.6406250      0.6672745
Kr        0.2464523      0.5611649      0.2909927
Kr        0.4149628      0.6997681      0.6443634
Kr        0.3897705      0.6450729      0.6200714
Kr        0.3795166      0.6325607      0.3203506
Kr        0.6996460      0.5732193      0.2767944
Kr        0.7060318      0.2802505      0.2925568
Kr        0.3025131      0.7544327      0.4965134
Kr        0.5936737      0.3776932      0.5966187
Kr        0.6881409      0.3350525      0.7243195
Kr        0.6628494      0.6536636      0.6669388
Kr        0.5792847      0.7163773      0.3502045
Kr        0.4892731      0.7636261      0.5419693
Kr        0.3014145      0.6527634      0.2958069
Kr        0.4180222      0.7167740      0.6019745
Kr        0.5621262      0.7642288      0.5001144
Kr        0.4164200      0.4037094      0.5442200
Kr        0.6803818      0.6467590      0.6162720
Kr        0.5735321      0.6307678      0.6261749
Kr        0.6240692      0.4144058      0.5681763
Kr        0.4305801      0.5279541      0.4228058
Kr        0.5593719      0.5506744      0.7232361
Kr        0.7396393      0.3325043      0.4838104
Kr        0.4895859      0.4921570      0.5434189
Kr        0.5016327      0.3522949      0.4534607
Kr        0.3149033      0.4096069      0.2996445
Kr        0.6920853      0.3864594      0.3688049
Kr        0.5412750      0.3308563      0.4313583
Kr        0.4353714      0.4090042      0.3946991
Kr        0.2847595      0.4826660      0.5177765
Kr        0.4134216      0.3518982      0.6536636
Kr        0.3413773      0.6569748      0.3248520
Kr        0.6235733      0.4540176      0.4132614
Kr        0.6222305      0.6482162      0.5433197
Kr        0.6812363      0.3962021      0.6288681
Kr        0.6800461      0.5376511      0.2390976
Kr        0.4197769      0.6489258      0.5446701
Kr        0.5501785      0.5340042      0.4817123
Kr        0.7028427      0.7132721      0.2291489
Kr        0.5399323      0.5818710      0.2737961
Kr        0.5621872      0.6036224      0.3975143
Kr        0.6857834      0.6529160      0.3627548
Kr        0.3241196      0.6032639      0.3094482
Kr        0.2724075      0.5446548      0.2418518
Kr        0.4524155      0.7765732      0.2912445
Kr        0.2678604      0.3316956      0.4431152
Kr        0.5563278      0.5320663      0.2742081
Kr        0.6352844      0.4699097      0.5868149
Kr        0.4531174      0.3261032      0.2774582
Kr        0.3735733      0.4319153      0.6277237
Kr        0.4291611      0.7335815      0.7221756
Kr        0.4932327      0.4761658      0.6658325
Kr        0.3459244      0.4241180      0.3350677
Kr        0.3012619      0.4488068      0.3453064
Kr        0.3856201      0.6467590      0.3748093
Kr        0.6234283      0.5976181      0.3424683
Kr        0.2481613      0.5346527      0.5087662
Kr        0.5674362      0.7157135      0.6050186
Kr        0.3025589      0.7793274      0.2703094
Kr        0.4100189      0.6062241      0.3990555
Kr        0.4352264      0.6672134      0.5943680
Kr        0.3881683      0.4158630      0.3660126
Kr        0.4758682      0.7773819      0.7058258
Kr        0.4928818      0.7152176      0.2702484
Kr        0.2629013      0.5061035      0.7135849
Kr        0.3497620      0.6427765      0.5320206
Kr        0.6874313      0.3242950      0.4668045
Kr        0.5819778      0.4225540      0.5739288
Kr        0.4335175      0.7787247      0.5279160
Kr        0.7101974      0.7714844      0.6619186
Kr        0.6172333      0.3976135      0.4136124
Kr        0.2960587      0.4801025      0.6735306
Kr        0.3771210      0.6763229      0.2873001
Kr        0.3852692      0.4279099      0.5772247
Kr        0.6167755      0.7045212      0.5373764
Kr        0.3789749      0.6343765      0.5763702
Kr        0.2564163      0.7265778      0.4246063
Kr        0.3059998      0.6007614      0.3478088
Kr        0.7081375      0.5670242      0.5133743
Kr        0.5489273      0.6774139      0.6087265
Kr        0.5378723      0.7387695      0.6921310
Kr        0.6774902      0.4271011      0.3463058
Kr        0.2639084      0.3110046      0.7132874
Kr        0.7137451      0.5902176      0.4699097
Kr        0.3569717      0.4161148      0.6705246
Kr        0.6819916      0.2834015      0.2457047
Kr        0.4248657      0.5350037      0.5233231
Kr        0.2477646      0.7314301      0.6612244
Kr        0.7420425      0.5661697      0.6613159
Kr        0.5843735      0.3832092      0.3737640
Kr        0.3107529      0.5122147      0.2434540
Kr        0.5794296      0.5858154      0.3539581
Kr        0.2483673      0.2610474      0.2041931
Kr        0.5088730      0.2513962      0.2216415
Kr        0.5597839      0.2771454      0.2089462
Kr        0.4311218      0.2772522      0.1935577
Kr        0.4291611      0.2335510      0.2221451
Kr        0.4758682      0.2773514      0.2057953
Kr        0.7483978      0.2610474      0.2041931
Kr        0.2193069      0.4691162      0.2154922
Kr        0.2279129      0.5558701      0.2168503
Kr        0.7151413      0.3011017      0.2115479
Kr        0.2855682      0.3490448      0.2244568
Kr        0.7193375      0.4691162      0.2154922
Kr        0.3122101      0.2871552      0.2150955
Kr        0.2991180      0.5865250      0.2243500
Kr        0.4383163      0.3213959      0.2238541
Kr        0.5498199      0.4934692      0.2230988
Kr        0.3079605      0.5315018      0.2033539
Kr        0.5174332      0.3066940      0.2134018
Kr        0.6713943      0.4828568      0.2243500
Kr        0.2483673      0.7610779      0.2041931
Kr        0.5073242      0.5153656      0.2047958
Kr        0.5356827      0.5971146      0.2252502
Kr        0.5088730      0.7514267      0.2216415
Kr        0.4234238      0.5160065      0.2169037
Kr        0.4802246      0.7141266      0.2210541
Kr        0.5597839      0.7771759      0.2089462
Kr        0.7279434      0.5558701      0.2168503
Kr        0.4311218      0.7772827      0.1935577
Kr        0.6881409      0.3350525      0.2242966
Kr        0.5593719      0.5506744      0.2232056
Kr        0.4291611      0.7335815      0.2221451
Kr        0.4758682      0.7773819      0.2057953
Kr        0.2629013      0.5061035      0.2135544
Kr        0.2639084      0.3110046      0.2132416
Kr        0.7855911      0.3490448      0.2244568
Kr        0.7483978      0.7610779      0.2041931
Kr        0.7629318      0.5061035      0.2135544
Kr        0.7639313      0.3110046      0.2132416
Kr        0.7151413      0.8011322      0.2115479
Kr        0.3122101      0.7871857      0.2150955
Kr        0.2639084      0.8110352      0.2132416
Kr        0.7639313      0.8110352      0.2132416
Kr        0.2264557      0.2694550      0.4168625
Kr        0.2185516      0.2744522      0.4970093
Kr        0.2266617      0.2502060      0.2432480
Kr        0.6877899      0.2353439      0.4381561
Kr        0.2742081      0.2708054      0.2400513
Kr        0.7264862      0.2694550      0.4168625
Kr        0.2570038      0.2665558      0.2960587
Kr        0.5042801      0.2781906      0.2916565
Kr        0.2827530      0.2313995      0.2766495
Kr        0.5178375      0.2600937      0.4513550
Kr        0.7038422      0.2355499      0.6844788
Kr        0.4653168      0.2505417      0.2505417
Kr        0.6785431      0.2749557      0.6937790
Kr        0.4344177      0.2333984      0.2779007
Kr        0.4704208      0.2574463      0.4612579
Kr        0.5364304      0.2723083      0.6583710
Kr        0.4809189      0.2627411      0.4057083
Kr        0.7185822      0.2744522      0.4970093
Kr        0.4255142      0.2757034      0.4703674
Kr        0.2966156      0.2492065      0.4523087
Kr        0.3064575      0.2375107      0.2358475
Kr        0.5411835      0.2383041      0.2744980
Kr        0.5383301      0.2714539      0.2505417
Kr        0.4621658      0.2703476      0.6576691
Kr        0.6855392      0.2711411      0.5342712
Kr        0.2606506      0.2407455      0.5294724
Kr        0.2483673      0.2610474      0.7042236
Kr        0.4936752      0.2313004      0.6604767
Kr        0.4566193      0.2336960      0.5100632
Kr        0.5088730      0.2513962      0.7216721
Kr        0.5341797      0.2348022      0.5188675
Kr        0.2967606      0.2387466      0.6785736
Kr        0.5597839      0.2771454      0.7089767
Kr        0.5510712      0.2307510      0.4221573
Kr        0.7266922      0.2502060      0.2432480
Kr        0.4311218      0.2772522      0.6935883
Kr        0.6806335      0.2763519      0.4772034
Kr        0.2537689      0.2481003      0.4630051
Kr        0.3025131      0.2544022      0.4965134
Kr        0.4892731      0.2635956      0.5419693
Kr        0.5621262      0.2641983      0.5001144
Kr        0.4524155      0.2765427      0.2912445
Kr        0.4291611      0.2335510      0.7221756
Kr        0.3025589      0.2792969      0.2703094
Kr        0.4758682      0.2773514      0.7058258
Kr        0.4335175      0.2786942      0.5279160
Kr        0.7101974      0.2714539      0.6619186
Kr        0.5378723      0.2387466      0.6921310
Kr        0.2477646      0.2313995      0.6612244
Kr        0.7742386      0.2708054      0.2400513
Kr        0.7570343      0.2665558      0.2960587
Kr        0.7827835      0.2313995      0.2766495
Kr        0.7606812      0.2407455      0.5294724
Kr        0.7483978      0.2610474      0.7042236
Kr        0.7537994      0.2481003      0.4630051
Kr        0.7477951      0.2313995      0.6612244
Kr        0.2353592      0.3477936      0.6846848
Kr        0.2193069      0.4691162      0.7155228
Kr        0.2382584      0.3357544      0.5290146
Kr        0.2225571      0.5158615      0.2427444
Kr        0.2264557      0.7694855      0.4168625
Kr        0.2390060      0.5804138      0.4235611
Kr        0.2378159      0.5901718      0.2477951
Kr        0.2418060      0.4986572      0.5418167
Kr        0.2421570      0.3237915      0.2988968
Kr        0.2402115      0.2967453      0.2571945
Kr        0.2422180      0.4636078      0.2737045
Kr        0.2349625      0.7218399      0.2787552
Kr        0.2185516      0.7744827      0.4970093
Kr        0.2381134      0.2898483      0.5446167
Kr        0.2249527      0.7059174      0.4634628
Kr        0.2271042      0.5475540      0.5494690
Kr        0.2259598      0.5185089      0.6717758
Kr        0.2387543      0.3431396      0.2453918
Kr        0.2266617      0.7502365      0.2432480
Kr        0.2279129      0.5558701      0.7168808
Kr        0.2399673      0.2939529      0.4567108
Kr        0.2396088      0.3325043      0.4838104
Kr        0.2137146      0.5902176      0.4699097
Kr        0.2420120      0.5661697      0.6613159
Kr        0.7855911      0.3490448      0.7244873
Kr        0.7427902      0.4670563      0.5036163
Kr        0.7766953      0.2814026      0.4168015
Kr        0.7486877      0.5167618      0.4159622
Kr        0.7931442      0.5734253      0.4341660
Kr        0.7742386      0.7708359      0.2400513
Kr        0.7440872      0.4639664      0.4259109
Kr        0.7808380      0.5226135      0.6658325
Kr        0.7570343      0.7665863      0.2960587
Kr        0.7827835      0.7314301      0.2766495
Kr        0.7464828      0.5912170      0.5156250
Kr        0.7905350      0.4703674      0.4720154
Kr        0.7651825      0.5951767      0.4674683
Kr        0.7849503      0.5722198      0.6811829
Kr        0.7988968      0.2936020      0.4583588
Kr        0.7817383      0.4707031      0.2311478
Kr        0.7720413      0.7137756      0.4853134
Kr        0.7488937      0.4785614      0.6720886
Kr        0.7776947      0.5288544      0.4612579
Kr        0.7845383      0.5344620      0.5381241
Kr        0.7660828      0.2902451      0.4992218
Kr        0.7606812      0.7407761      0.5294724
Kr        0.7483978      0.7610779      0.7042236
Kr        0.7660828      0.7170258      0.2310028
Kr        0.7522964      0.5968246      0.7015762
Kr        0.7865982      0.3309021      0.5311661
Kr        0.7486496      0.3037949      0.6712341
Kr        0.7457886      0.4983063      0.4628143
Kr        0.7483368      0.5114059      0.2779465
Kr        0.7537994      0.7481308      0.4630051
Kr        0.7940369      0.5320053      0.4125671
Kr        0.7874374      0.3274536      0.6746292
Kr        0.7464828      0.5611649      0.2909927
Kr        0.7847824      0.4826660      0.5177765
Kr        0.7724380      0.5446548      0.2418518
Kr        0.7678909      0.3316956      0.4431152
Kr        0.7481918      0.5346527      0.5087662
Kr        0.7629318      0.5061035      0.7135849
Kr        0.7564468      0.7265778      0.4246063
Kr        0.7639313      0.3110046      0.7132874
Kr        0.7477951      0.7314301      0.6612244
Kr        0.2402115      0.7967758      0.2571945
Kr        0.2381134      0.7898788      0.5446167
Kr        0.2399673      0.7939835      0.4567108
Kr        0.7151413      0.8011322      0.7115784
Kr        0.2766647      0.7814331      0.4168015
Kr        0.3122101      0.7871857      0.7151260
Kr        0.2954559      0.7814331      0.6624222
Kr        0.4802704      0.7989273      0.2513962
Kr        0.4267654      0.7849350      0.2539444
Kr        0.5394363      0.7941284      0.5390701
Kr        0.2988663      0.7936249      0.4583588
Kr        0.7402420      0.7967758      0.2571945
Kr        0.3002625      0.7819290      0.5323715
Kr        0.4756165      0.7819748      0.4965744
Kr        0.7381439      0.7898788      0.5446167
Kr        0.4977798      0.8012390      0.6608124
Kr        0.2660522      0.7902756      0.4992218
Kr        0.5280304      0.7836838      0.4111557
Kr        0.5588760      0.7890244      0.4503555
Kr        0.2486191      0.8038254      0.6712341
Kr        0.4423218      0.7883759      0.4250565
Kr        0.7399979      0.7939835      0.4567108
Kr        0.6869354      0.7921295      0.4317093
Kr        0.5216751      0.7866821      0.4933624
Kr        0.7060318      0.7802811      0.2925568
Kr        0.2639084      0.8110352      0.7132874
Kr        0.6819916      0.7834320      0.2457047
Kr        0.7766953      0.7814331      0.4168015
Kr        0.7988968      0.7936249      0.4583588
Kr        0.7660828      0.7902756      0.4992218
Kr        0.7486496      0.8038254      0.6712341
Kr        0.7639313      0.8110352      0.7132874
Kr        0.2266617      0.2502060      0.7432785
Kr        0.2742081      0.2708054      0.7400818
Kr        0.2827530      0.2313995      0.7766800
Kr        0.4653168      0.2505417      0.7505722
Kr        0.3064575      0.2375107      0.7358704
Kr        0.5383301      0.2714539      0.7505722
Kr        0.7266922      0.2502060      0.7432785
Kr        0.3025589      0.2792969      0.7703323
Kr        0.7742386      0.2708054      0.7400818
Kr        0.7827835      0.2313995      0.7766800
Kr        0.2225571      0.5158615      0.7427750
Kr        0.2378159      0.5901718      0.7478333
Kr        0.2402115      0.2967453      0.7572250
Kr        0.2422180      0.4636078      0.7737350
Kr        0.2387543      0.3431396      0.7454224
Kr        0.2266617      0.7502365      0.7432785
Kr        0.2918015      0.5870209      0.7750320
Kr        0.5484238      0.3107529      0.7739868
Kr        0.4807663      0.5878754      0.7285309
Kr        0.2742081      0.7708359      0.7400818
Kr        0.7225876      0.5158615      0.7427750
Kr        0.4981766      0.4631577      0.7320328
Kr        0.4787674      0.3489532      0.7382889
Kr        0.4802704      0.2988968      0.7514267
Kr        0.4267654      0.2849045      0.7539749
Kr        0.6919327      0.3209991      0.7702332
Kr        0.2827530      0.7314301      0.7766800
Kr        0.2885056      0.3264542      0.7727814
Kr        0.6862869      0.7253265      0.7769852
Kr        0.5254822      0.4948044      0.7689819
Kr        0.4653168      0.7505722      0.7505722
Kr        0.7378464      0.5901718      0.7478333
Kr        0.4781189      0.5779724      0.7733841
Kr        0.6891403      0.5927200      0.7271805
Kr        0.5371246      0.3463516      0.7331390
Kr        0.2817078      0.4707031      0.7311783
Kr        0.7402420      0.2967453      0.7572250
Kr        0.7422485      0.4636078      0.7737350
Kr        0.6974869      0.4858170      0.7697754
Kr        0.4465103      0.4741135      0.7262802
Kr        0.3064575      0.7375336      0.7358704
Kr        0.5349350      0.7137756      0.7302856
Kr        0.4430695      0.5471191      0.7742767
Kr        0.5383301      0.7714844      0.7505722
Kr        0.4781647      0.4685516      0.7766800
Kr        0.4786606      0.5086060      0.7421875
Kr        0.2660522      0.7170258      0.7310333
Kr        0.5158310      0.5479584      0.7461319
Kr        0.7387848      0.3431396      0.7454224
Kr        0.4221191      0.5717163      0.7287216
Kr        0.7266922      0.7502365      0.7432785
Kr        0.6800461      0.5376511      0.7391281
Kr        0.7028427      0.7132721      0.7291794
Kr        0.5399323      0.5818710      0.7738266
Kr        0.2724075      0.5446548      0.7418747
Kr        0.5563278      0.5320663      0.7742386
Kr        0.4531174      0.3261032      0.7774887
Kr        0.3025589      0.7793274      0.7703323
Kr        0.4928818      0.7152176      0.7702789
Kr        0.6819916      0.2834015      0.7457352
Kr        0.3107529      0.5122147      0.7434845
Kr        0.7742386      0.7708359      0.7400818
Kr        0.7827835      0.7314301      0.7766800
Kr        0.7817383      0.4707031      0.7311783
Kr        0.7660828      0.7170258      0.7310333
Kr        0.7724380      0.5446548      0.7418747
Kr        0.2402115      0.7967758      0.7572250
Kr        0.4802704      0.7989273      0.7514267
Kr        0.4267654      0.7849350      0.7539749
Kr        0.7402420      0.7967758      0.7572250
Kr        0.6819916      0.7834320      0.7457352
Kr        0.4627762      0.4202499      0.1830750
Kr        0.3498077      0.3080368      0.1828613
Kr        0.2710037      0.3878937      0.1832123
Kr        0.3836136      0.4995804      0.1831055
Kr        0.5982895      0.8221512      0.6975479
Kr        0.5205765      0.8219910      0.6190262
Kr        0.7124329      0.8234711      0.5865784
Kr        0.3483200      0.8221512      0.6975555
Kr        0.2705612      0.8219910      0.6190262
Kr        0.4623642      0.8234940      0.5865631
Kr        0.6322098      0.8235397      0.5057755
Kr        0.3822327      0.8235321      0.5057755
Kr        0.7127686      0.6701813      0.1830292
Kr        0.5997543      0.5580597      0.1828690
Kr        0.7124481      0.8234863      0.3366547
Kr        0.3483200      0.8221512      0.4475403
Kr        0.4627914      0.6701736      0.1830521
Kr        0.3498077      0.5580521      0.1828613
Kr        0.2710114      0.6378708      0.1832199
Kr        0.3836060      0.7496185      0.1831207
Kr        0.2705765      0.8219757      0.3691025
Kr        0.4623795      0.8235092      0.3366470
Kr        0.6002579      0.2357025      0.2561035
Kr        0.7858505      0.3888702      0.4475098
Kr        0.7127533      0.4202652      0.1830521
Kr        0.5997543      0.3080444      0.1828690
Kr        0.5210571      0.3878860      0.1831818
Kr        0.6336517      0.4995804      0.1831131
Kr        0.7503662      0.1966019      0.6222458
Kr        0.5100098      0.1886597      0.6111298
Kr        0.6271133      0.1885452      0.4960709
Kr        0.6374512      0.1967392      0.7360764
Kr        0.4724579      0.1891479      0.6255112
Kr        0.2318115      0.1964493      0.6080551
Kr        0.3431625      0.1890945      0.4960403
Kr        0.3598709      0.1964035      0.7363358
Kr        0.7506104      0.1962891      0.3446350
Kr        0.5099716      0.1893234      0.3271713
Kr        0.6407318      0.1892700      0.4581985
Kr        0.4724274      0.1885605      0.3415680
Kr        0.2320938      0.1968002      0.3304596
Kr        0.3464203      0.1965561      0.2181091
Kr        0.3568039      0.1886368      0.4581680
Kr        0.8226166      0.2341690      0.6074295
Kr        0.7859116      0.1980286      0.6074295
Kr        0.8223114      0.2344360      0.3311615
Kr        0.7856445      0.1983337      0.3311386
Kr        0.1975632      0.6371231      0.5059052
Kr        0.1977005      0.6712265      0.6970520
Kr        0.1978226      0.7504044      0.6178360
Kr        0.1980057      0.5585403      0.5856934
Kr        0.1975708      0.3870850      0.5059128
Kr        0.1976852      0.4211578      0.6970673
Kr        0.1978607      0.5004654      0.6178207
Kr        0.1979828      0.3085632      0.5856857
Kr        0.1975479      0.6371155      0.2559128
Kr        0.1977005      0.6712265      0.4470367
Kr        0.1978149      0.7504120      0.3677902
Kr        0.1980209      0.5585480      0.3356247
Kr        0.1975555      0.3870773      0.2559128
Kr        0.1978531      0.5004654      0.3677750
Kr        0.8313522      0.5100632      0.3271790
Kr        0.8244019      0.2694855      0.3446655
Kr        0.8242722      0.3973541      0.2179031
Kr        0.8242569      0.7882614      0.6080780
Kr        0.8315811      0.5476303      0.6255417
Kr        0.8244247      0.6617737      0.7362518
Kr        0.8313828      0.6782303      0.4960785
Kr        0.8320084      0.5100327      0.6111374
Kr        0.8240891      0.2697296      0.6222687
Kr        0.8241348      0.3841934      0.7360229
Kr        0.8320007      0.3942947      0.4961090
Kr        0.8238983      0.7879868      0.3304596
Kr        0.8321686      0.5476608      0.3415833
Kr        0.8321686      0.6648560      0.4580841
Kr        0.8239365      0.6749573      0.2181549
Kr        0.3822327      0.8235168      0.2557297
Kr        0.6322021      0.8235245      0.2557220
Kr        0.6234665      0.2346039      0.8081818
Kr        0.6233826      0.1979065      0.7719116
Kr        0.3472137      0.2348251      0.8079300
Kr        0.3471222      0.1981659      0.7716827
Kr        0.2706451      0.6698685      0.7712250
Kr        0.4724274      0.3795700      0.8166580
Kr        0.2318649      0.3970184      0.8097153
Kr        0.3597412      0.2702942      0.8095703
Kr        0.3432693      0.5105057      0.8169708
Kr        0.7506180      0.6604614      0.8095703
Kr        0.5099792      0.6778564      0.8168945
Kr        0.6406174      0.5484772      0.8166809
Kr        0.6240997      0.7886200      0.8097839
Kr        0.4723892      0.6635208      0.8173218
Kr        0.3566818      0.5485077      0.8172989
Kr        0.3465347      0.7883987      0.8094864
Kr        0.7503433      0.3828430      0.8092117
Kr        0.5100098      0.3939362      0.8174744
Kr        0.6373520      0.2705536      0.8092346
Kr        0.6271820      0.5104752      0.8175201
Kr        0.7859116      0.3976440      0.8081360
Kr        0.8226166      0.3980103      0.7719727
Kr        0.7856750      0.6739044      0.8078613
Kr        0.8223267      0.6742554      0.7717209
Kr   0.02938493 0.16417010 0.62594175
Kr   0.38772810 0.45242789 0.97211599
Kr   0.67429370 0.81739259 0.27950266
Kr   0.64880812 0.65216303 0.14108300
Kr   0.54339319 0.21093291 0.36859918
Kr   0.02089464 0.79957330 0.40448794
Kr   0.41206592 0.26561213 0.78949380
Kr   0.42981166 0.82616246 0.70462042
Kr   0.25194231 0.75045615 0.00344320
Kr   0.82188052 0.70441437 0.01762802
Kr   0.14570336 0.70756328 0.28921425
Kr   0.83076811 0.56469983 0.55108887
Kr   0.04786639 0.51836377 0.33250442
Kr   0.41321367 0.26755446 0.13278399
Kr   0.37569159 0.75204533 0.83231312
Kr   0.98087114 0.69308418 0.62891412
Kr   0.70871103 0.01453796 0.96175694
Kr   0.34645382 0.91183048 0.56122720
Kr   0.49371693 0.68296057 0.15080929
Kr   0.53584462 0.85481167 0.54626250
Kr   0.44033253 0.23635963 0.43382871
Kr   0.34548265 0.02564744 0.52115953
Kr   0.18001767 0.23488818 0.97542673
Kr   0.59352559 0.28821367 0.79667449
Kr   0.85229552 0.44617423 0.70303118
Kr   0.22142437 0.41640672 0.86040318
Kr   0.10753384 0.58120954 0.47810477
Kr   0.85027957 0.51728958 0.02897293
Kr   0.73818421 0.90884346 0.86412597
Kr   0.55960858 0.22498529 0.23568276
Kr   0.49278989 0.81514126 0.91110945
Kr   0.21439081 0.64164215 0.73788995
Kr   0.83449090 0.33527076 0.70722485
Kr   0.05404650 0.89312828 0.04708652
Kr   0.20301647 0.78160685 0.19059741
Kr   0.41724545 0.32545614 0.10392878
Kr   0.72037965 0.62167454 0.88349032
Kr   0.78363746 0.29774868 -.00294291
Kr   0.48232785 0.33909655 0.07217481
Kr   0.74898469 0.60448796 0.79139203
Kr   0.50531197 0.56886405 0.90993232
Kr   0.11590642 0.71655387 0.54408479
Kr   0.57641262 0.74146557 0.14746910
Kr   0.69598293 0.13762507 0.63814008
Kr   0.74103886 0.70854914 0.77917892
Kr   0.47529426 0.41730431 0.85033846
Kr   0.11614185 0.46980578 0.92223364
Kr   0.80943203 0.84980869 0.66113889
Kr   0.27676573 0.96545029 0.98079753
Kr   0.53609473 0.77261627 0.13490289
Kr   0.69582105 0.82751620 0.04278988
Kr   0.90434080 0.45194232 0.37079164
Kr   0.84133309 0.13001767 0.16199234
Kr   0.43784580 0.55609185 0.90759271
Kr   0.81337553 0.69184816 0.32394055
Kr   0.87427902 0.28378457 0.33708066
Kr   0.01477340 0.86283112 0.07077692
Kr   0.20072101 0.41184521 0.20135374
Kr   0.19640964 0.09808711 0.77076221
Kr   0.52532375 0.96041787 0.82473516
Kr   0.71915835 0.58968514 0.97082102
Kr   0.02127722 0.29810184 0.45104474
Kr   0.67947322 0.77697176 0.19181873
Kr   0.16855504 0.67173338 0.48784578
Kr   0.36649498 0.98730135 0.43490288
Kr   0.49124482 0.81465566 0.54084760
Kr   0.80977046 0.53176868 0.28955269
Kr   0.18706593 0.49642438 0.41558269
Kr   0.74761623 0.66895235 0.85985875
Kr   0.38580048 0.05613596 0.50690114
Kr   0.02227781 0.08574162 0.18672748
Kr   0.41680402 0.38684523 0.91196293
Kr   0.58830196 0.56324309 0.79657149
Kr   0.61618596 0.16833431 0.56957036
Kr   0.47582406 0.46442026 0.92573571
Kr   0.30092701 0.20032373 0.93116540
Kr   0.19074456 0.72167450 0.91945261
Kr   0.38151854 0.79861683 0.78440255
Kr   0.03425545 0.43431431 0.29368746
Kr   0.71827543 0.51125664 0.19570336
Kr   0.77644199 0.17458799 0.37591231
Kr   0.33371103 0.62441146 0.81743675
Kr   0.83334315 0.33908182 0.50703359
Kr   0.83219540 0.40366393 0.83859628
Kr   0.19212772 0.31893760 0.23594762
Kr   0.12258682 0.81480283 0.15769571
Kr   0.09817540 0.46269864 0.72439671
Kr   0.41874632 0.66683346 0.79786640
Kr   0.82389641 0.07002649 0.21564156
Kr   0.56366980 0.79623306 0.09482048
Kr   0.70167750 0.22698645 0.52981168
Kr   0.85300177 0.72057092 0.13635963
Kr   0.60479695 0.41795173 0.86805475
Kr   0.93226898 0.79942614 0.09985285
Kr   0.89106828 0.52645671 0.25644496
Kr   0.54936725 0.58231318 0.97791350
Kr   0.18387288 0.81990880 0.33260742
Kr   0.99293709 0.66240436 0.00943202
Kr   0.13630076 0.98313719 0.84149498
Kr   0.13527074 0.03343143 0.49150971
Kr   0.77697176 0.34635079 0.01553855
Kr   0.03429959 0.69471753 0.66553855
Kr   0.52683932 0.91998231 0.11293408
Kr   0.57879633 0.17951736 0.34542379
Kr   0.19839612 0.34746912 0.27889937
Kr   0.97680992 0.51905537 0.49108300
Kr   0.57909065 0.88329899 0.35242790
Kr   0.29980871 0.86100650 0.49427605
Kr   0.80334026 0.07798705 0.49902886
Kr   0.85906416 0.39757210 0.57542670
Kr   0.12623604 0.92326367 0.99248087
Kr   0.19423190 0.73248971 0.54267216
Kr   0.86522955 0.62563276 0.40410537
Kr   0.69395232 0.49770457 0.92158622
Kr   0.01889347 0.01695115 0.85592997
Kr   0.56998235 0.94947028 0.81574458
Kr   0.67239553 0.74504119 0.14231901
Kr   0.70704824 0.87008536 0.28151855
Kr   0.22897293 0.53959686 0.38037083
Kr   0.20869629 0.27117422 0.66634786
Kr   0.90469396 0.88802236 0.46331665
Kr   0.60979992 1.00291348 0.34841082
Kr   0.12809005 0.01228664 0.11957034
Kr   0.73244560 0.03925839 0.26194820
Kr   0.84677756 0.25838727 0.29646853
Kr   0.83858156 0.75756329 0.97469097
Kr   0.41609770 0.87809002 0.64780754
Kr   0.05004415 0.63132721 0.59100944
Kr   0.08731607 0.88157737 0.53073865
Kr   0.18454973 0.65975577 0.34180400
Kr   0.13150384 0.37854621 0.61333138
Kr   0.24796939 0.37083578 0.14021483
Kr   0.67823720 0.90794581 0.05135374
Kr   0.57199824 0.12413184 0.68994999
Kr   0.97285163 0.23965569 0.67467630
Kr   0.05854915 0.29426131 0.48260742
Kr   0.81778985 0.39401120 0.42113009
Kr   0.59448206 0.50779867 0.21253680
Kr   0.10993232 0.08468217 0.63237202
Kr   0.41203651 0.09139200 0.81834906
Kr   0.84707183 0.67756033 0.12398469
Kr   0.52105647 0.24025896 0.86921716
Kr   0.61234552 0.84255445 0.59173048
Kr   0.54106826 0.86312538 0.38173929
Kr   0.75060332 0.38494703 0.98376989
Kr   0.35027957 0.07934079 0.19117127
Kr   0.82951736 0.55248678 0.50869626
Kr   0.68759567 0.90027958 0.10216304
Kr   0.66764277 0.40816659 0.79208362
Kr   0.80977046 0.92707479 0.84233373
Kr   0.68201882 0.85331082 0.32135081
Kr   0.68788993 0.87414658 0.61380225
Kr   0.05434079 0.24490876 0.45759270
Kr   0.48527077 0.14008240 0.89638025
Kr   0.83001769 0.26540613 0.57938492
Kr   0.49901411 0.18452030 0.68060625
Kr   0.82070339 0.69092119 0.69889647
Kr   0.29446733 0.17819305 0.22719246
Kr   0.81100649 0.82333726 0.51021188
Kr   0.92894351 0.24081811 0.70082402
Kr   0.18930253 0.24324603 0.18499117
Kr   0.42816362 0.60594469 0.09866098
Kr   0.42070335 0.54643911 0.82352853
Kr   0.62385225 0.15776928 0.13212185
Kr   0.86880517 0.18100353 0.51984990
Kr   0.20257504 0.75684232 0.31727487
Kr   0.82770747 0.29268688 0.66381693
Kr   0.19979399 0.79717481 0.58905244
Kr   0.52327842 0.51311064 0.00270748
Kr   0.17071807 0.77610362 0.41558269
Kr   0.79870510 0.21698058 0.45279574
Kr   0.43019423 0.44885227 0.00116245
Kr   0.28469688 0.95693052 0.56021190
Kr   0.02989994 0.43369630 0.15069158
Kr   0.10076516 0.71119779 0.46184519
Kr   0.70966744 0.14273101 0.51063859
Kr   0.29543847 0.01474397 0.84741026
Kr   0.49457034 0.65079463 0.20949088
Kr   0.88737494 0.53301942 0.08160683
Kr   0.34149501 0.19745438 0.42061505
Kr   0.17622131 0.65554738 0.82485282
Kr   0.72767806 0.84470272 0.64099473
Kr   0.40751913 0.35357562 0.79957330
Kr   0.42401412 0.86965865 0.46662742
Kr   0.30214834 0.19610064 0.79702765
Kr   0.70756328 0.55122131 0.77182168
Kr   0.17834020 0.72479403 0.48541787
Kr   0.19618894 0.28643319 0.71665686
Kr   0.80273694 0.28591818 0.27155679
Kr   0.48943499 0.13769865 0.59783697
Kr   0.29608592 0.83491760 0.43974397
Kr   0.38603592 0.17132136 0.42975280
Kr   0.14743967 0.58768392 0.95545906
Kr   0.63293111 0.94295174 0.68922895
Kr   0.56187469 0.18584462 0.40334019
Kr   0.31945261 0.56543553 0.94846970
Kr   0.44446734 0.68674225 0.04908770
Kr   0.94020015 0.56943792 0.55488521
Kr   0.38956740 0.66290462 0.96318424
Kr   0.80797529 0.38952327 0.31908476
Kr   0.13961154 0.76497942 0.02510300
Kr   0.19181873 0.13035610 0.41767216
Kr   0.67140967 0.46783403 0.17111535
Kr   0.44412890 0.71175689 0.85420835
Kr   0.63325483 0.19117127 0.27192464
Kr   0.69231904 0.29109773 0.80816656
Kr   0.34471747 0.19326074 0.16068275
Kr   0.85320777 0.03791936 0.69615954
Kr   0.16247793 0.12514715 0.87976754
Kr   0.46550912 0.08384344 0.80381107
Kr   0.96830487 0.30684227 0.64805770
Kr   0.53831667 0.41200706 0.86455268
Kr   0.33780167 0.88091528 0.74842554
Kr   0.17794292 0.43201885 0.40746027
Kr   0.56753975 0.99025893 0.45263389
Kr   0.57700121 0.52672166 0.93974400
Kr   0.43203357 0.22729546 0.77492648
Kr   0.67198354 0.77454388 0.81444967
Kr   0.16505298 0.38571218 0.89145088
Kr   0.70666569 0.61231607 0.83884639
Kr   0.40022072 0.98022366 0.46116832
Kr   0.53326958 0.87432313 0.78104770
Kr   0.15434079 0.34356976 0.27775162
Kr   0.36781931 0.65695995 0.79476166
Kr   0.96461153 0.35650384 0.22167452
Kr   0.20269276 0.55381107 0.08163626
Kr   0.75079459 0.35665098 0.05307534
Kr   0.42307240 0.43833137 0.94907302
Kr   0.95622426 0.66948205 0.50972629
Kr   0.84125960 0.64005297 0.16834903
Kr   0.20376691 0.54405534 0.44280460
Kr   1.00139785 0.29995587 0.26346382
Kr   0.49869040 0.99577689 0.85910827
Kr   0.38663918 0.86256623 0.43244556
Kr   0.22698645 0.42285168 0.48602119
Kr   0.95263386 0.41358152 0.24078871
Kr   0.30366391 0.21016775 0.14902885
Kr   0.27336669 0.93980283 0.19526193
Kr   0.58518249 0.79401118 0.75348735
Kr   0.45801944 0.08889052 0.22143908
Kr   0.99159801 0.26406708 0.85195702
Kr   0.92614776 0.92713362 0.84947026
Kr   0.64755738 0.85843146 0.62382287
Kr   0.14130370 0.57352859 0.34124485
Kr   0.09273102 0.39183342 0.65270752
Kr   0.49386403 0.83026779 0.69749856
Kr   0.57714832 0.24196588 0.92264569
Kr   0.88755155 0.04003826 0.87689823
Kr   0.71577400 0.21876103 0.27792820
Kr   0.25673926 0.45002943 0.17460272
Kr   0.54954386 0.22357270 0.74470276
Kr   0.84440851 0.18178341 0.06330194
Kr   0.46842259 0.64384931 0.92942911
Kr   0.81069750 0.03983226 0.96180105
Kr   0.87422013 0.70838726 0.69199532
Kr   0.39621836 0.20768100 0.25694525
Kr   0.76703942 0.12199824 0.26369923
Kr   0.69011188 0.11284579 0.48332843
Kr   0.91344911 0.71066809 0.78350502
Kr   0.65750438 0.93119484 0.50775456
Kr   0.19290759 0.77346969 0.45822543
Kr   0.96000582 0.84180403 0.54741025
Kr   0.33140081 0.95300174 0.10220718
Kr   0.59729254 0.00557681 0.09851383
Kr   0.00120659 0.73959684 0.65520895
Kr   0.60026485 0.60373747 0.08443202
Kr   0.98022366 0.07052679 0.81801057
Kr   0.16421424 0.65123600 0.29195115
Kr   0.69789582 0.88984698 0.98123896
Kr   0.85406125 0.63403475 0.23843439
Kr   0.48968512 0.22164509 0.29695410
Kr   0.58035612 0.85932904 0.51358151
Kr   0.78456444 0.80029428 0.27536789
Kr   0.46575928 0.84134787 0.78385818
Kr   0.74536490 0.06634785 0.69253969
Kr   0.68946439 0.37529427 0.13680106
Kr   0.91417009 0.17550030 0.43231311
Kr   0.58534431 0.42049736 0.04432019
Kr   0.45097119 0.55320781 0.96768689
Kr   0.95765156 0.16845202 0.72360212
Kr   0.85850501 0.63839018 0.83190113
Kr   0.19295174 0.98609477 0.82857567
Kr   0.79820484 0.90100056 0.18428488
Kr   0.66546494 0.06284579 0.18587404
Kr   0.14507063 0.69240731 0.69771928
Kr   0.39960271 0.81137431 0.46090347
Kr   0.71437609 0.29714540 0.12327840
Kr   0.01025603 0.95050031 0.87317538
Kr   0.69973516 0.39505592 0.82326370
Kr   0.41143322 0.03065038 0.65472335
Kr   0.76643616 0.42526487 0.20779870
Kr   0.23521189 0.29055327 0.96926135
Kr   0.38163626 0.02396998 0.06038846
Kr   0.81817245 0.37168923 0.37673634
Kr   0.11846674 0.21714243 0.53368157
Kr   0.81237495 0.17923778 0.11230136
Kr   0.49716008 0.24599765 0.11384638
Kr   0.27616245 0.82286644 0.53552091
Kr   0.14418776 0.88671279 0.76415539
Kr   0.18379930 0.35108888 0.84377575
Kr   0.99910247 0.33491760 0.59459978
Kr   0.49106830 0.03446145 0.31250736
Kr   0.07526486 0.67270452 0.22302824
Kr   0.73279870 0.35048559 0.13477047
Kr   0.36606827 0.21792232 0.65654796
Kr   0.75420839 0.30133903 0.16088876
Kr   0.31055033 0.04869041 0.38934666
Kr   0.15038258 0.69696885 0.90640080
Kr   0.64434963 0.12931137 0.63266623
Kr   0.15815187 0.17192467 0.40569451
Kr   0.62435257 0.25537080 0.06475868
Kr   0.17773691 0.32795763 0.12161566
Kr   0.83624196 0.69267219 0.39801353
Kr   0.49306944 0.65105945 0.07714833
Kr   0.73849326 0.18001767 0.49342263
Kr   0.24992643 0.43987638 0.93563861
Kr   0.08418187 0.70445853 0.69710124
Kr   0.31505296 0.83042967 0.73584461
Kr   0.27573574 0.86230141 0.11545027
Kr   0.61471456 0.85239851 0.29451147
Kr   0.34240732 0.16159506 0.55954975
Kr   0.49848440 0.81699526 0.31942320
Kr   0.36489111 0.52953207 0.13474102
Kr   0.67424953 0.81718659 0.83278400
Kr   0.83933198 0.01711301 0.99049449
Kr   0.63094473 0.45450267 0.03481460
Kr   0.53324014 0.75712180 0.08507946
Kr   0.39654207 0.89913183 0.50132430
Kr   0.60325193 0.08038552 0.67301351
Kr   0.97641265 0.37813419 0.42133608
Kr   0.63350505 0.50151563 0.06517069
Kr   0.65544438 0.18481460 0.16266923
Kr   0.15954974 0.77154207 0.35055915
Kr   0.45588583 0.09043555 0.06764273
Kr   0.81992352 0.33253387 0.42408770
Kr   0.54203945 0.86542082 0.66105062
Kr   0.96851087 0.34136257 0.81259567
Kr   0.61261034 0.20144202 0.42605945
Kr   0.62745732 0.86178637 0.16793703
Kr   0.87482345 0.43104768 0.59498239
Kr   0.40386993 0.14084755 0.46369925
Kr   0.08608004 0.67882580 0.50629783
Kr   0.86811364 0.59871984 0.46450856
Kr   0.74220127 0.51364040 0.84888166
Kr   0.60644495 0.98718363 0.77514714
Kr   0.35582694 0.23304886 0.13656563
Kr   0.20260447 0.46765745 0.65849030
Kr   0.14814597 0.52608883 0.57218957
Kr   0.17396998 0.43222484 0.46746615
Kr   0.82753086 0.48447615 0.69034725
Kr   0.67630965 0.86698055 0.74077398
Kr   0.79467332 0.28141555 0.17997351
Kr   0.79927897 0.08631548 0.61202174
Kr   0.89671868 0.26511183 0.84393764
Kr   0.33263686 0.07600059 0.32789877
Kr   0.65723956 0.52164507 0.78758091
Kr   0.66933489 0.21240437 0.35204533
Kr   0.28335786 0.01483225 0.59271628
Kr   0.13738964 0.32463214 0.36244851
Kr   0.75938791 0.13145968 0.02692761
Kr   0.00626839 0.65631253 0.07541201
Kr   0.05478223 0.45952031 0.11996762
Kr   0.63065040 0.47548556 0.12127722
Kr   0.48315185 0.85935849 0.37488228
Kr   0.85902005 0.65128022 0.68669808
Kr   0.99011189 0.11964390 0.47477928
Kr   0.87369043 0.49682167 0.50231022
Kr   0.32354328 0.95818126 0.54078871
Kr   0.67414653 0.82789880 0.90170687
Kr   0.97145379 0.25410536 0.58081228
Kr   0.93175393 0.34014127 0.58917010
Kr   0.81446445 0.63841969 0.53560919
Kr   0.41583285 0.31465569 0.16227193
Kr   0.16456740 0.49184814 0.19504121
Kr   0.62710416 0.80946147 0.75282520
Kr   0.01524426 0.34014127 0.28251913
Kr   0.45178044 0.91683340 0.98415250
Kr   0.91390526 0.07338140 0.37550029
Kr   0.35420838 0.06440553 0.09561507
Kr   0.02236610 0.51948208 0.38085639
Kr   0.58023834 0.00803414 0.71587700
Kr   0.21662743 0.06524426 0.33516774
Kr   0.41806945 0.73067987 0.13784580
Kr   0.31477341 0.13577105 0.97533840
Kr   0.45020601 0.36892292 0.02085050
Kr   0.83669806 0.43738964 0.23505004
Kr   0.19031784 0.78360802 0.77054155
Kr   0.77291054 0.17310183 0.07192466
Kr   0.81427312 0.31211007 0.57835495
Kr   0.57826662 0.03066510 0.88668334
Kr   0.15444380 0.15388465 0.24265744
Kr   0.34894058 0.28649205 0.95469391
Kr   0.28749263 0.56587702 0.10123602
Kr   0.51686287 0.21992348 0.47741318
Kr   0.91087407 0.38721308 0.55999118
Kr   0.73309296 0.20439965 0.77295464
Kr   0.23006181 0.28775752 0.62410241
Kr   0.12764862 0.80173630 0.00020600
Kr   0.06920248 0.19212772 0.91902590
Kr   0.86602414 0.32154208 0.15841672
Kr   0.58540320 0.71753973 0.19980872
Kr   0.73209238 0.81500882 0.37670690
Kr   0.56806946 0.84639496 0.74490881
Kr   0.87242496 0.51943791 0.13056210
Kr   0.65391403 0.62834018 0.03902296
Kr   0.35520893 0.52089465 0.08251913
Kr   0.98983222 0.38555032 0.15670982
Kr   0.87382281 0.52785462 0.35937318
Kr   0.44664508 0.41681871 0.03344614
Kr   0.47817838 0.23974396 0.05010300
Kr   0.84108299 0.73507947 0.77764863
Kr   0.02392584 0.07249853 0.53662449
Kr   0.56464100 0.91143322 0.38850796
Kr   0.83329904 0.63081223 0.35844615
Kr   0.58803713 0.23172455 0.83222485
Kr   0.36209536 0.46652442 0.80267805
Kr   0.26959977 0.07252796 0.71932018
Kr   0.30932900 0.53378463 0.84805769
Kr   0.40163332 0.64006770 0.88438791
Kr   0.19121543 0.36848146 0.98510885
Kr   0.40375221 0.98324013 0.39614481
Kr   0.51109481 0.34626251 0.79418778
Kr   0.53045911 0.54844028 0.03647734
Kr   0.20067686 0.27610359 0.92694229
Kr   0.37667748 0.82077694 0.83132726
Kr   0.34124485 0.38918480 0.10197175
Kr   0.23815480 0.73123896 0.83471161
Kr   0.77499998 0.08275456 0.56421429
Kr   0.38300470 0.18952325 0.89290762
Kr   0.09608594 0.75859332 0.68462330
Kr   0.88341671 0.72239554 0.22614774
Kr   0.58758092 0.09573279 0.60132432
Kr   0.69408476 0.33569747 0.17170393
Kr   0.68743378 0.91194826 0.37114480
Kr   0.23416716 0.46085933 0.84994119
Kr   0.91183048 0.19020012 0.37566218
Kr   0.27168924 0.90815187 0.66942316
Kr   0.00875515 0.61811358 0.48288703
Kr   0.66881990 0.23510888 0.77951741
Kr   0.02557387 0.89542377 0.39245144
Kr   0.96241903 0.30372280 0.34484991
Kr   0.29437906 0.48148912 0.17439671
Kr   0.33201882 0.25517949 1.00017655
Kr   0.35285461 0.14561507 0.80562097
Kr   0.34078869 0.48712477 0.90244263
Kr   0.87061507 0.43499118 0.98874336
Kr   0.94999993 0.74077398 0.81208062
Kr   0.26889348 0.29445261 0.09927899
Kr   0.01990877 0.42494115 0.10697469
Kr   0.73321068 0.98210716 0.67867863
Kr   0.98687464 0.47002649 0.08443202
Kr   0.70142728 0.02714832 0.22230724
Kr   0.75626838 0.37270454 0.17907593
Kr   0.64951444 0.94053853 0.90398765
Kr   0.61168337 0.36612713 0.13660978
Kr   0.71309596 0.57720721 0.11653914
Kr   0.14354032 0.08399059 0.46369925
Kr   0.18359330 0.69707185 0.26400822
Kr   0.75721014 0.95153034 0.83800769
Kr   0.85463512 0.48599178 0.38581517
Kr   0.87061507 0.48477045 0.24068570
Kr   0.03170983 0.73123896 0.99171579
Kr   0.24015597 0.97944385 0.42994410
Kr   0.39440849 0.55298710 0.20513538
Kr   0.44423193 0.02536786 0.57544142
Kr   0.64799881 0.60540026 0.12651560
Kr   0.93216598 0.76359624 0.23615362
Kr   0.28440258 0.62332255 -.00070630
Kr   0.67138022 0.69823426 0.16815774
Kr   0.35339907 0.28418186 0.03690406
Kr   0.20693055 0.16577399 0.75876993
Kr   0.44795468 0.73092997 0.80113304
Kr   0.04577693 0.82193941 0.75732785
Kr   0.92180693 0.52029139 0.52935547
Kr   0.82048261 0.52276343 0.37857565
Kr   0.59320188 0.92383754 0.73744851
Kr   0.42956153 0.86191881 0.41074160
Kr   0.96982044 0.71595055 0.22848734
Kr   0.17639787 0.26397881 0.32447028
Kr   0.58163625 0.97263092 0.58731610
Kr   0.46648028 0.85975575 0.31408182
Kr   0.65604764 0.32507357 0.83298999
Kr   0.71706885 0.84726316 0.53608006
Kr   0.22260153 0.89936727 0.84355503
Kr   0.59692466 0.05125074 0.79477638
Kr   0.27850208 0.97449970 0.44844025
Kr   0.37164509 0.98491758 0.54713064
Kr   0.43312243 0.04671866 0.25822544
Kr   0.44417307 0.06793702 0.60754859
Kr   0.59830785 0.25292820 0.14764568
Kr   0.62024724 0.20619482 0.31637728
Kr   0.11812831 0.46024132 0.97975278
Kr   0.13990584 0.29517362 0.50431132
Kr   0.43057680 0.91552389 0.40719542
Kr   0.22205709 0.27895823 0.33824307
Kr   0.24206887 0.14137729 0.93630075
Kr   0.88343143 0.02274868 0.64820480
Kr   0.12923779 0.74070042 0.37769276
Kr   0.73563862 0.09084755 0.64408475
Kr   0.82113010 0.13722779 0.10489994
Kr   0.01739259 0.59477639 0.12914951
Kr   0.81230134 0.62135082 0.26364037
Kr   0.71593583 0.79165685 0.80097115
Kr   0.79858738 0.14746910 0.33788994
Kr   0.59832251 0.49161270 0.98465276
Kr   0.62695706 0.82339615 0.06789288
Kr   0.51068276 0.07655974 0.82639790
Kr   0.39585051 0.49233374 0.13134196
Kr   0.31334609 0.16780460 0.18256328
Kr   0.19508535 0.41849619 0.90180987
Kr   0.48007652 0.97998822 0.16522954
Kr   0.82261622 0.90263391 0.59359920
Kr   0.26253676 0.42527959 0.12725133
Kr   0.74776340 0.32344028 0.88819897
Kr   0.22886993 0.41998234 0.74664509
Kr   0.75557679 0.08619776 0.14468805
Kr   0.47807536 0.12758975 0.10292819
Kr   0.83493233 0.51405239 0.54249561
Kr   0.27463213 0.18624191 0.64905828
Kr   0.16238965 0.39941141 0.16409653
Kr   0.87354326 0.29025897 0.26806948
Kr   0.97223365 0.63875812 0.47903180
Kr   0.24698351 0.92264569 0.45829901
Kr   0.21587698 0.19827841 0.19604179
Kr   0.82273394 0.36709830 0.55233961
Kr   0.15638612 0.33169511 0.17947322
Kr   0.13482931 0.47488227 0.40464979
Kr   0.45258975 0.29635078 0.12167452
Kr   0.45829901 0.26494998 0.80088288
Kr   0.89117128 0.59785169 0.21858446
Kr   0.75525308 0.17127723 0.15356092
Kr   0.35650384 0.98293120 0.72102708
Kr   0.38627133 0.81700999 0.07101236
Kr   0.83964097 0.24259858 0.17268983
Kr   0.39212772 0.23986170 0.93357855
Kr   0.45985875 0.78958213 0.80432606
Kr   0.74326074 0.96990877 0.63934672
Kr   0.54134786 0.18254857 0.64774871
Kr   0.37458801 0.70454681 0.79351085
Kr   0.96789289 0.47210124 0.57408768
Kr   0.84022957 0.28743380 0.92782521
Kr   0.08600647 0.57092404 0.28095940
Kr   0.15409064 0.56762803 0.48182753
Kr   0.87948793 0.72267509 0.52859038
Kr   0.05690112 0.19423190 0.65091228
Kr   0.31562686 0.19052383 0.28482932
Kr   0.72449970 0.37363157 0.20859329
Kr   0.00781342 0.72642732 0.24115656
Kr   0.17196882 0.02997351 0.55719543
Kr   0.25295761 0.89027369 0.42139494
Kr   0.36125663 0.19423190 0.30648911
Kr   0.82165980 0.60509127 0.30924076
Kr   0.88353443 0.69376105 0.31456739
Kr   0.12085050 0.60944670 0.12697175
Kr   0.22739848 0.92394054 0.02115951
Kr   0.99021482 0.97541201 0.37207180
Kr   0.19040611 0.08752207 0.57388169
Kr   0.40098587 0.19646852 0.57629490
Kr   0.44170099 0.72566217 0.93759567
Kr   0.95747501 0.65323722 0.41805473
Kr   0.01209535 0.77145380 0.62369043
Kr   0.52321953 0.14039141 0.86553854
Kr   0.83169514 0.75076514 0.02389641
Kr   0.52707475 0.81596529 0.22391112
Kr   0.39000881 0.10104474 0.44065627
Kr   0.49969098 0.92218953 0.90061802
Kr   0.97878164 0.52620661 0.07419070
Kr   0.04799882 0.74199528 0.72336668
Kr   0.01567098 0.67728078 0.58784580
Kr   0.38482931 0.41642141 0.82878166
Kr   0.50682753 0.57910538 0.19034727
Kr   0.62168926 0.28101826 0.85257506
Kr   0.55556214 0.81809890 0.40978518
Kr   0.04604179 0.91967332 0.61249262
Kr   0.02470571 0.37148324 0.41943789
Kr   0.14560036 0.37139493 0.12842849
Kr   0.46374339 0.74120075 0.17811948
Kr   0.94402587 0.99080342 0.08017952
Kr   0.46964392 0.50166273 0.09289289
Kr   0.62018836 0.92039436 0.43700707
Kr   0.76546496 0.79084754 0.11552384
Kr   0.45801944 0.83759564 0.49090642
Kr   0.66241908 0.90554738 0.30063272
Kr   0.92001176 0.50670987 0.21369924
Kr   0.60509127 0.04751325 0.22108594
Kr   0.20949088 0.72414660 0.15804885
Kr   0.47850209 0.93038553 0.60303116
Kr   0.56709832 0.07001177 0.64523250
Kr   0.33659506 0.19134785 0.10048558
Kr   0.72991467 0.02007063 0.00850500
Kr   0.23917010 0.86934966 0.65080929
Kr   0.13081224 0.05854915 0.70263392
Kr   0.47726607 0.47962040 0.81933492
Kr   0.98012066 0.62832552 0.10466451
Kr   0.20030901 0.02900235 0.76191878
Kr   0.46896705 0.33403474 0.18460859
Kr   0.12216010 0.79343736 0.37988523
Kr   0.57120365 0.39632136 0.09695409
Kr   0.11019717 0.53109181 0.25632724
Kr   0.52065921 0.82185113 0.45119187
Kr   0.20590053 0.33175397 0.77541202
Kr   0.80210423 0.66777515 0.37310183
Kr   0.15011771 0.53624195 0.52561802
Kr   0.24177457 0.86437613 0.15094174
Kr   0.01656857 0.04716009 0.58819896
Kr   0.27042380 0.17432314 0.30457622
Kr   0.53393173 0.09295174 0.38821366
Kr   0.76057976 0.64224541 0.96940845
Kr   0.40999117 0.13284285 0.34296647
Kr   0.65075040 0.07333726 0.08691878
Kr   0.11967334 0.77313125 0.42165980
Kr   0.71412599 0.55373752 0.16163920
Kr   0.61252207 0.00125074 0.93376988
Kr   0.14824897 0.76171279 0.30442905
Kr   0.83613890 0.29670393 0.98368156
Kr   0.14532079 0.79402596 0.19214243
Kr   0.50459093 0.82666278 0.86364037
Kr   0.79025900 0.02305768 0.58983225
Kr   0.28088582 0.29823425 1.00145674
Kr   0.50897586 0.30150089 0.15334019
Kr   0.84535021 0.90672451 0.24380518
Kr   0.84117126 0.01408181 0.34074455
Kr   0.99280459 0.93194526 0.03886110
Kr   0.76140374 0.84193641 0.53986168
Kr   0.20744555 0.75314891 0.96146268
Kr   0.44336376 0.50506181 1.00119185
Kr   0.38546202 0.94123012 0.52781045
Kr   0.34514418 0.71227193 0.83499116
Kr   0.37148324 0.83613890 0.36598000
Kr   0.08443202 0.76870221 0.50288403
Kr   0.45728371 0.22995880 0.00603296
Kr   0.81467044 0.27216011 0.39084756
Kr   0.49855798 0.54771924 0.99167156
Kr   0.52101237 0.05522366 0.34532079
Kr   0.33894938 0.22894350 0.18943496
Kr   0.50307536 0.94276047 0.45791644
Kr   0.56185991 0.42923778 0.90969694
Kr   0.37591231 0.21113890 0.54175985
Kr   0.01065333 0.42492643 0.44037670
Kr   0.59296644 0.48630077 0.92413187
Kr   0.02516186 0.41659802 0.63412303
Kr   0.37814891 0.04415833 0.43485874
Kr   0.42024720 0.06583285 0.41603884
Kr   0.09117128 0.97482342 0.75147146
Kr   0.78022367 0.98906714 0.02567687
Kr   0.60254562 0.94963217 0.40437025
Kr   0.19505592 0.81908476 0.65492934
Kr   0.44434962 0.14027369 0.49816069
Kr   0.18815480 0.01319894 0.67319012
Kr   0.79635078 0.79585052 0.05575338
Kr   0.20815186 0.80269277 0.02405827
Kr   0.04033255 0.75666571 0.20431137
Kr   0.83469689 0.06368452 0.05272219
Kr   0.27783990 0.58703649 0.14532079
Kr   0.80900532 0.84922016 0.81433195
Kr   0.68591821 0.93818420 0.31191877
Kr   0.30612126 0.54170102 0.04802825
Kr   0.80039734 0.65160388 0.59449679
Kr   0.85110360 0.46138906 0.09203944
Kr   0.25456148 0.02929665 0.74829310
Kr   0.00334020 0.64852858 0.43363744
Kr   0.34746912 0.19568864 0.85306060
Kr   0.12333726 0.98808128 0.16809888
Kr   0.87483811 0.04989700 0.08515304
Kr   0.48421133 0.84159797 0.26631844
Kr   0.09437905 0.73557979 0.61002064
Kr   0.67029136 0.16854033 0.57427901
Kr   0.67077690 0.82064450 0.70668042
Kr   0.82282221 0.43481460 0.81261033
Kr   0.77826661 0.16959977 0.44676280
Kr   0.18397588 0.59199530 0.88235730
Kr   0.69529134 0.83612424 0.42268983
Kr   0.21319894 0.80856389 0.88195997
Kr   0.05721013 0.30678341 0.11374338
Kr   0.77613300 0.04278988 0.02407298
Kr   0.01793702 0.38690406 0.59330487
Kr   0.24003826 0.11005003 0.27861977
Kr   0.02847263 0.20459095 0.28025308
Kr   0.12776633 0.36375812 0.39248088
Kr   0.20348735 0.55035317 0.26403767
Kr   0.79220134 0.94713062 0.61500883
Kr   0.84763098 0.58574158 0.95425248
Kr   0.20900531 0.18967040 0.66430253
Kr   0.35576808 0.41799587 0.14371690
Kr   0.92778105 0.27551502 0.63090050
Kr   0.69899946 0.66464096 0.84713066
Kr   0.13738964 0.16188934 0.73482931
Kr   0.32426429 0.66834903 0.15963802
Kr   0.96291941 0.60632730 0.34527665
Kr   0.25697470 0.03422602 0.81884933
Kr   0.81936431 0.55105948 0.12330783
Kr   0.45609182 0.82655978 0.44309890
Kr   0.06877575 0.35061800 0.56968808
Kr   0.80501765 0.35389936 0.76776046
Kr   0.83559448 0.22080635 0.77841377
Kr   0.11059447 0.11475868 0.86003536
Kr   0.65382576 0.37916422 0.10551795
Kr   0.53839022 0.18166569 0.15994702
Kr   0.03744850 0.40419364 0.54823422
Kr   0.84408474 0.93335783 0.15039729
Kr   0.89404058 0.82263094 0.24187757
Kr   0.74511480 0.01970277 0.61592114
Kr   0.98163623 0.03293113 0.20909359
Kr   0.04849912 0.92204237 0.54405534
Kr   0.89620364 0.07232195 0.61550915
Kr   0.46796644 0.36920246 0.88388759
Kr   0.37067392 0.85437024 0.63456446
Kr   0.31858444 0.32937023 0.02026192
Kr   0.11845203 0.69430548 0.41084462
Kr   0.14295174 0.84008241 0.10615068
Kr   0.04948499 0.08582991 0.66037381
Kr   0.16302237 0.24642436 0.57074749
Kr   0.45968217 0.81341964 0.63961154
Kr   0.10233961 0.41746616 0.41266921
Kr   0.12997352 0.68073869 0.22361682
Kr   0.14557092 0.59468806 0.57951736
Kr   0.31895235 0.12835491 0.72760451
Kr   0.39673337 0.81286055 0.91108006
Kr   0.88404948 0.63619775 0.79261333
Kr   0.94217187 0.62819308 0.78786051
Kr   0.42420542 0.85082400 0.74436438
Kr   0.37223369 0.32608888 0.81908476
Kr   0.77779579 0.09489405 0.37633902
Kr   0.91826075 0.94137734 0.09682166
Kr   0.35831371 0.75997645 0.01078576
Kr   0.64368743 0.86614186 0.12155680
Kr   0.87292528 0.64233375 0.33814007
Kr   0.14323132 0.87330782 0.34280461
Kr   0.97015893 0.56584758 0.63296056
Kr   0.85111833 0.17798705 0.90560621
Kr   0.40414950 0.31540611 0.84855795
Kr   0.45918187 0.74208355 0.02842849
Kr   0.24732196 0.56230140 0.78650677
Kr   0.60613596 0.84055328 0.01999706
Kr   -.00058858 0.59788114 0.43004709
Kr   0.56539142 0.66528845 0.80085343
Kr   0.08978812 0.49596825 0.79434967
Kr   0.08128311 0.65144205 0.97636843
Kr   0.45097119 0.15875514 0.66340494
Kr   0.52944380 0.04286345 0.86439079
Kr   0.15553266 0.97255743 0.06902590
Kr   0.36555329 0.27492642 0.10685698
Kr   0.17594174 0.42904651 0.11046204
Kr   0.65856385 0.02143908 0.64174515
Kr   0.05703355 0.69635081 0.53934669
Kr   0.63638908 0.73452032 0.79760158
Kr   0.63943499 0.38390231 0.83680105
Kr   0.33326957 0.81946737 0.24577692
Kr   0.32023251 0.90375221 0.17995879
Kr   0.80178046 0.41907004 0.35849032
Kr   0.07517658 0.54929376 0.37107122
Kr   0.56861395 0.06046204 0.10965274
Kr   0.49156860 0.18550618 0.86990875
Kr   0.43947911 0.95516485 0.43351972
Kr   0.84415835 0.10189818 0.12725133
Kr   0.59115654 0.15869629 0.76137435
Kr   0.23144497 0.21856976 0.77539730
Kr   0.48549145 0.47018835 0.87093878
Kr   0.69398171 0.09436434 0.43194526
Kr   0.39523250 0.51533252 0.79632139
Kr   0.16511182 0.58343148 0.10816657
Kr   0.72383755 0.54281932 0.99493819
Kr   0.63641846 0.79112715 0.45575339
Kr   0.72360212 0.35559154 0.91028547
Kr   0.01075633 0.88622719 0.02900235
Kr   0.96349317 0.38855210 0.57859033
Kr   0.66677457 0.83866978 0.14695410
Kr   0.67569155 0.42751619 0.12366098
Kr   0.95151561 0.94698358 0.89139199
Kr   0.74062687 0.76776046 0.82822245
Kr   0.68972927 0.18098882 0.95952034
Kr   0.50545913 0.59945554 0.80091232
Kr   0.87800175 0.53481460 0.58799291
Kr   0.98322541 0.51970279 0.40498823
Kr   0.70821071 0.86153620 0.13627133
Kr   0.57714832 0.51383162 0.88958216
Kr   0.71855503 0.05869629 0.47809008
Kr   0.25981459 0.71118307 0.13106239
Kr   0.02252796 0.51908475 0.70520896
Kr   0.51122719 0.23743378 0.76686287
Kr   0.38331372 0.95631254 0.82739848
Kr   0.24071512 0.23659506 0.82547086
Kr   0.18221013 0.01340494 0.48076811
Kr   0.64490879 0.57804590 0.00834314
Kr   0.17650089 0.64042085 0.71745145
Kr   0.31293407 0.38509417 0.15762213
Kr   0.30441436 0.18728663 0.74471748
Kr   0.87314600 0.93172455 0.21116833
Kr   0.19008240 0.23457918 0.68098879
Kr   0.99852854 0.56156564 0.98316664
Kr   0.45787230 0.83666867 0.21684815
Kr   0.19173042 0.85982931 0.69039142
Kr   0.36655384 0.35903472 0.00673926
Kr   0.20812243 0.17566215 0.42753091
Kr   0.10088287 0.22554444 0.43865511
Kr   0.17842850 0.77707475 0.14002354
Kr   0.84742498 0.36929077 0.30707768
Kr   0.89486462 0.79743969 0.54046500
Kr   0.89642441 0.43400532 0.23090054
Kr   0.68403471 0.06112419 0.50534135
Kr   0.57327837 0.72973806 0.09490877
Kr   0.84371692 0.38911125 0.92773694
Kr   0.07433785 0.77180696 0.29611537
Kr   0.01025603 0.45485580 0.79540908
Kr   0.22989994 0.40685698 0.16417010
Kr   0.99726313 0.11829016 0.36012363
Kr   0.32675102 0.01394938 0.57039434
Kr   0.57476461 0.31505296 0.86324310
Kr   0.94074452 0.53696293 0.58369631
Kr   0.09053855 0.95179516 0.71241909
Kr   0.56517071 0.69670397 0.13791937
Kr   0.57698649 0.76066804 0.40529725
Kr   0.08371101 0.75245738 0.55463511
Kr   0.86851090 0.28447616 0.88989115
Kr   0.56321365 0.45531195 0.80297232
Kr   0.59848440 0.81374335 0.21168335
Kr   0.65172160 0.81820190 0.21362565
Kr   0.96898174 0.93981755 0.12422013
Kr   0.69359922 0.90907884 0.42104179
Kr   0.41658330 0.26080048 0.08263685
Kr   0.50716597 0.15011771 0.64874929
Kr   0.19365804 0.33783108 0.33421129
Kr   0.38178340 0.88173926 0.38494703
Kr   0.56921715 0.35366392 0.03980282
Kr   0.79891109 0.24149501 0.69642437
Kr   0.37057093 0.17504415 0.60796058
Kr   0.54240727 0.05528252 0.60969692
Kr   0.23069453 0.98045915 0.65101528
Kr   0.89761627 0.96362567 0.24648322
Kr   0.56213951 0.28588876 0.14158328
Kr   0.48643318 0.92544144 0.50575334
Kr   0.62268984 0.34649795 0.87048268
Kr   0.96124184 0.41917303 0.62766331
Kr   0.23422602 0.58504999 0.10497351
Kr   0.99480581 0.87482345 0.89627725
Kr   0.21999706 0.66212481 0.83811069
Kr   0.48724249 0.59056795 0.94386399
Kr   0.58730131 0.38599178 0.84392291
Kr   0.18518247 0.52635372 0.14143614
Kr   0.55244261 0.06397881 0.82344025
Kr   0.84045029 0.29053858 0.51930547
Kr   0.88334316 0.76268393 0.32538259
Kr   0.02065921 0.44337845 0.48696294
Kr   0.89017069 0.04771925 0.28482932
Kr   0.50894648 0.30186874 0.91134495
Kr   0.65147144 0.05409065 0.02233667
Kr   0.94699830 0.87379342 0.91808420
Kr   0.41397882 0.17198351 0.30695999
Kr   0.20500295 0.82033551 0.80319303
Kr   0.52205712 0.12633903 0.34022954
Kr   0.14577693 0.13101825 0.92720717
Kr   0.90615070 0.23400530 0.89452618
Kr   0.01559741 0.07341083 0.26524425
Kr   0.73257798 0.20785756 0.95916712
Kr   0.31709829 0.66049147 0.79621840
Kr   0.88254857 0.10111831 0.19620365
Kr   0.93095940 0.64883757 0.33581519
Kr   0.42341083 0.82077694 0.12295468
Kr   0.11293408 0.36867276 0.27719247
Kr   0.32046792 0.89221597 0.64976460
Kr   0.54155385 0.68260741 0.19377574
Kr   0.57798702 0.16618599 0.48968512
Kr   0.97836959 0.98569745 0.11793703
Kr   0.87548560 0.14175986 0.43602118
Kr   0.74698353 0.82024723 0.84014130
Kr   0.16259564 0.48746321 0.52466154
Kr   0.33709535 0.40510595 0.82810479
Kr   0.51673043 0.96899641 0.58251917
Kr   0.18000294 0.55091226 0.39896998
Kr   0.33790466 0.44997057 0.95319307
Kr   0.10208947 0.00163331 0.87591231
Kr   0.97329307 0.73212188 0.12841378
Kr   0.38237199 0.20366392 0.48940551
Kr   0.46743673 0.15918188 0.29186285
Kr   0.18675692 0.60925543 0.21467039
Kr   0.12882578 0.25223660 0.49927899
Kr   0.38028252 0.98990589 0.76662743
Kr   0.08322543 0.04596822 0.68159211
Kr   0.30070633 0.07791348 1.00014722
Kr   0.82473516 0.94118601 0.21218364
Kr   0.34576219 0.52713364 0.01761330
Kr   0.16440554 0.96459687 0.67324901
Kr   0.64623308 0.01865803 0.10214832
Kr   0.07035021 0.11093290 0.61574459
Kr   0.54804295 0.59964687 0.12692761
Kr   0.17085050 0.62505889 0.61443496
Kr   0.06776045 0.11773103 0.17057092
Kr   0.88268101 0.47132134 0.94477636
Kr   0.17311655 0.78811067 0.49237791
Kr   0.15600353 0.81737787 0.43681580
Kr   0.84387875 0.98507947 0.28128311
Kr   0.22785462 0.42271927 0.97505885
Kr   0.58293116 0.91465569 0.06449382
Kr   0.74439377 0.10715127 0.83858156
Kr   0.74774873 0.70512062 0.13316657
Kr   0.94690990 0.60001475 0.51172751
Kr   0.26998234 0.18831666 0.58067983
Kr   0.80077988 0.21605356 0.74055326
Kr   0.98290169 0.83625662 0.92906123
Kr   0.11615656 0.92907596 0.86324310
Kr   0.92054152 0.56119776 0.07082108
Kr   0.12579459 0.78212184 0.71746618
Kr   0.79417306 0.48650676 0.27464688
Kr   0.16280165 0.73412299 0.18332842
Kr   0.20431137 0.49660096 0.50451738
Kr   0.04356975 0.77104181 0.68388760
Kr   0.88193059 0.58404946 0.04507063
Kr   0.40236902 0.21062391 0.12613301
Kr   0.17932609 0.50606239 0.07433785
Kr   0.58803713 0.88949382 0.00416421
Kr   0.59577692 0.67607415 0.23343144
Kr   0.29807240 0.11639199 0.44646850
Kr   0.57008535 0.13582990 0.30847558
Kr   0.44352561 0.61901122 0.89198059
Kr   0.74613011 0.89869040 0.81731898
Kr   0.45432606 0.81072688 -.00342849
Kr   0.46406710 0.87049735 0.94886702
Kr   0.58019423 0.14969100 0.16383167
Kr   0.60306066 0.32319012 0.81845206
Kr   0.56870216 0.85448796 0.92505890
Kr   0.65369332 0.17271924 0.02497057
Kr   0.21971749 0.31689230 0.87474990
Kr   0.72886992 0.21278694 0.07064450
Kr   0.31854033 0.23703648 0.06948205
Kr   0.95107418 0.12243968 0.21715716
Kr   0.04170100 0.59621841 0.38936141
Kr   0.63513833 0.72151268 0.17357269
Kr   0.81468511 0.60437024 0.64248085
Kr   0.09358446 0.81053561 0.64411414
Kr   0.13969983 0.30114773 0.13210712
Kr   0.54645383 0.17145380 0.22691289
Kr   0.13185698 0.52747208 0.37037963
Kr   0.33003238 0.13600647 0.49802828
Kr   0.92844319 1.00563574 0.48063570
Kr   0.74125957 0.91418481 0.48924369
Kr   0.81314009 0.46093291 0.33530018
Kr   0.98410827 0.11781931 0.92700118
Kr   0.13671277 0.75751913 0.21792232
Kr   0.47800177 0.22135080 0.72289580
Kr   0.84317243 0.89476162 0.74242204
Kr   0.35002944 0.86999708 0.89668924
Kr   0.92744261 0.02273396 0.42912006
Kr   0.56318420 0.09660094 0.87720722
Kr   0.94268692 0.59165686 0.82529432
Kr   0.78001761 0.23151855 0.87770748
Kr   0.11155091 0.36238965 0.18347557
Kr   0.27529427 0.21521483 0.97982633
Kr   0.66241908 0.23313715 0.89348149
Kr   0.05101530 0.10235433 0.84368747
Kr   0.19358447 0.47057092 0.45298705
Kr   0.28120953 0.10657740 0.20406121
Kr   0.10392878 0.00229547 0.97741324
Kr   0.84593880 0.11745144 0.22920835
Kr   0.23759563 0.11231606 0.49992642
Kr   0.70038259 0.99486464 0.79952914
Kr   0.58366686 0.91128606 0.67655975
Kr   0.79780757 0.57377869 0.77349913
Kr   0.99173045 0.94679224 0.08291642
Kr   0.77951741 0.09211301 0.02217481
Kr   0.61246324 0.84381992 0.34627724
Kr   0.17707476 0.03590347 0.12495586
Kr   0.80401707 0.67844319 0.13716891
Kr   0.48743379 0.51019716 0.03600648
Kr   0.72714835 0.42889938 0.80442905
Kr   0.54364330 0.35660684 0.89268690
Kr   0.86946738 0.76166862 0.22288111
Kr   0.22007063 0.54239261 0.63223952
Kr   0.18688935 0.86942315 0.57385230
Kr   0.26368451 0.20723955 0.72984105
Kr   0.17579459 0.13179812 0.62152737
Kr   0.77973813 0.07064450 0.23404944
Kr   0.77407300 0.24067099 0.15347263
Kr   0.79323131 0.83419663 0.57942903
Kr   0.04237787 0.74323130 0.35285461
Kr   0.86272812 0.59821951 0.52479404
Kr   0.77851677 0.27363157 0.11475868
Kr   0.08537375 0.27071810 0.42695704
Kr   0.58087111 0.02513243 0.13736022
Kr   0.42388168 0.68865508 -.00029429
Kr   0.61614186 0.52341080 0.10837257
Kr   0.03465274 0.11543555 0.56793702
Kr   0.01163920 0.60735726 0.60896116
Kr   0.81555325 0.98371094 0.59492350
Kr   0.06428782 0.27171865 0.24699822
Kr   0.66621542 0.95178044 0.18229841
Kr   0.66009420 0.32577986 0.11703943
Kr   0.41602415 0.49330491 0.95862275
Kr   0.08138611 0.79287815 0.14242202
Kr   0.56202179 0.06549441 0.98201883
Kr   0.52032077 0.48543262 0.17257209
Kr   0.24983814 0.84354031 0.46261036
Kr   0.42301354 0.95538557 0.94171572
Kr   0.85816658 0.55422312 0.21492054
Kr   0.68853736 0.99223071 0.49916127
Kr   0.63020891 0.95182455 0.32190996
Kr   0.31940848 0.97772217 0.46527371
Kr   0.03690406 0.52994406 0.93947911
Kr   0.68909657 0.92588288 0.63101822
Kr   0.92831081 0.44142145 0.45063272
Kr   0.83684522 0.03234255 0.57941437
Kr   0.09682166 0.42807534 0.58034134
Kr   0.54642433 0.63830197 0.07525015
Kr   0.53035611 0.39536491 0.12388169
Kr   0.80512065 0.44028842 0.85846084
Kr   0.71542084 0.70306063 0.02492643
Kr   0.07316069 0.87685406 0.57867861
Kr   0.44997057 0.11447911 0.54384929
Kr   0.07192466 0.89674813 0.47938493
Kr   0.37302825 0.22817834 0.07973809
Kr   0.60959393 0.53537375 0.85235429
Kr   0.47630960 0.89050913 0.80114776
Kr   0.85228080 0.51072687 0.18347557
Kr   0.07703061 0.17650089 0.26174220
Kr   0.62891412 0.16959977 0.65116245
Kr   0.39224544 0.14548264 0.90971160
Kr   0.68403471 0.85454679 0.23441730
Kr   0.04823426 0.59195113 0.84771925
Kr   0.20918187 0.50747496 0.19206887
Kr   0.19070041 0.66547972 0.17077693
Kr   0.55075043 0.92167455 0.93337256
Kr   0.87500000 0.75685698 0.48057681
Kr   0.30894646 0.27491173 0.87945855
Kr   0.80050033 0.53269571 0.17411713
Kr   0.87736905 0.64871985 0.73871392
Kr   0.71862864 0.86411124 0.86447912
Kr   0.81633317 0.71383166 0.64738077
Kr   0.95618016 0.44664508 0.49861687
Kr   0.05500294 0.33794877 0.51211011
Kr   0.80806357 0.35111830 0.61007947
Kr   0.89429080 0.31884933 0.41705415
Kr   0.18819894 0.51146263 0.47020307
Kr   0.02632431 0.07220424 0.39311358
Kr   0.89404058 0.22991467 0.30147147
Kr   0.57792819 0.45192760 0.96322834
Kr   0.23010594 0.75684232 0.57527959
Kr   0.97600061 0.66190410 0.36171278
Kr   0.90778399 0.20740142 0.73881692
Kr   0.83463806 0.81428784 0.77810478
Kr   0.16687757 0.55414951 0.99789584
Kr   0.04639494 0.00719541 0.73271042
Kr   0.16288993 0.22257210 0.07130665
Kr   0.50765157 0.02286639 0.59511477
Kr   0.16262507 0.75347269 0.87366098
Kr   0.66778988 0.01673043 0.68803710
Kr   0.03353443 0.17885521 0.21390523
Kr   0.51698059 0.72377872 0.85122132
Kr   0.96798110 0.62944382 0.28994998
Kr   0.11296351 0.81811357 0.42242497
Kr   0.49015599 0.14501177 0.47859037
Kr   0.35475278 0.89333433 0.06656858
Kr   0.12476457 0.72635370 0.97149801
Kr   0.89227486 0.56212479 0.49305475
Kr   0.08775751 0.04982343 -.00057387
Kr   0.00398764 0.35232490 0.34442317
Kr   0.92451447 0.38198939 0.72550029
Kr   0.67080641 0.01315480 0.18881695
Kr   0.11118305 0.87904656 0.09951442
Kr   0.01013832 0.01411124 0.90609181
Kr   0.22504415 0.06525897 0.76846671
Kr   0.31433195 0.92608887 0.26942319
Kr   0.99587995 0.05912302 0.05726898
Kr   0.42981166 0.07346969 0.31842259
Kr   0.84259862 0.59948504 0.67447031
Kr   0.96856970 0.62007064 0.22530901
Kr   0.83153331 0.07394055 0.99499708
Kr   0.72127724 0.09977929 0.24301060
Kr   0.87570632 0.02683932 0.16238965
Kr   0.14223073 0.94764566 0.50979990
Kr   0.64830780 0.07722190 0.65325195
Kr   0.81124192 0.72991467 0.40670982
Kr   0.51915836 0.03062095 0.26219836
Kr   0.64805770 0.05806357 0.30401707
Kr   0.25869629 0.17319012 0.79274577
Kr   0.42944378 0.66868746 0.10041200
Kr   0.39106828 0.18482931 0.67371982
Kr   0.01391995 0.14979400 0.93453503
Kr   0.36316952 0.28285757 0.90019125
Kr   0.91817242 0.45512068 0.26848146
Kr   0.32338139 0.35743085 0.89445263
Kr   0.22258681 0.25987345 0.05818128
Kr   0.38141555 0.19323131 0.34258386
Kr   0.29311359 0.57099766 0.90306067
Kr   0.98819894 0.51561213 0.76567101
Kr   0.54327548 0.95412010 0.40638611
Kr   0.30414951 0.23728663 0.83047378
Kr   0.74370217 0.77311653 0.97786939
Kr   0.59364337 0.02436727 0.47002649
Kr   0.24673337 0.09173043 0.45319307
Kr   0.80650383 0.21211007 0.94451153
Kr   0.08936139 0.61811358 0.46793702
Kr   0.32048264 0.28472632 0.08409359
Kr   0.57366097 0.19676280 0.19199529
Kr   0.27148324 0.63228375 0.94689524
Kr   0.91805476 0.45439965 0.62239552
Kr   0.47822249 0.93313718 0.06758387
Kr   0.26887876 0.71633315 0.08115067
Kr   0.94767511 0.47786936 0.94618899
Kr   0.94742501 0.90654802 0.59724838
Kr   0.91892290 0.63984698 0.60618007
Kr   0.15245733 0.01814303 0.96952617
Kr   0.21188934 0.92186582 0.65073574
Kr   0.89183348 0.56261039 0.55013245
Kr   0.00965274 0.78683048 0.86256623
Kr   0.81166863 0.42944378 0.67024720
Kr   0.90622431 0.13015009 0.65027958
Kr   0.58109182 0.12664804 0.96290469
Kr   0.83471161 0.15934373 0.23007651
Kr   0.60994703 0.06019718 0.90773982
Kr   0.68150383 0.62976754 0.10150088
Kr   0.47600058 0.92320484 0.83847857
Kr   0.08203354 0.69046497 0.61306655
Kr   0.48737496 0.24655680 0.97049737
Kr   0.84645385 0.93597710 0.70796055
Kr   0.88035607 0.30097118 0.96188939
Kr   0.35219246 0.61892289 0.13791937
Kr   0.56346381 0.83947909 0.97753090
Kr   0.40273693 0.89970571 0.33903769
Kr   0.92869335 0.08600647 0.50398761
Kr   0.15937316 0.43218070 0.80766630
Kr   0.87474990 0.49836668 0.81776047
Kr   0.40431136 0.55793113 0.87669224
Kr   0.25105944 0.90512067 0.78934669
Kr   0.90444380 0.59957331 0.52992940
Kr   0.52558863 0.09805768 0.68341672
Kr   0.62085050 1.00206006 0.24526191
Kr   0.91914362 0.82021779 0.58251917
Kr   0.14012654 0.75082403 0.47703061
Kr   0.28512362 0.03755150 0.63884640
Kr   0.50027961 0.59518838 0.12189524
Kr   0.38502061 0.89823425 0.60231018
Kr   0.08700707 0.32535315 0.32360214
Kr   0.67382282 0.14648323 0.27841377
Kr   0.47288114 0.64452618 0.11887876
Kr   0.14420247 0.62597120 0.47145382
Kr   0.58229846 0.20819600 0.61702472
Kr   0.47087991 0.33830193 0.12797233
Kr   0.13415244 0.84292233 0.53746325
Kr   0.34997058 0.03266627 0.77055621
Kr   0.94863158 0.31300765 0.94999993
Kr   0.22526486 0.34945557 0.07096822
Kr   0.65722483 0.82065922 0.78906709
Kr   0.17154208 0.05475280 0.04014126
Kr   0.59499705 0.12835491 0.54306948
Kr   0.17564745 0.27753091 0.41849619
Kr   0.43671280 0.97789878 0.61739260
Kr   0.74090642 0.30713654 0.97658920
Kr   0.14739554 0.20737199 0.67767805
Kr   0.90856385 0.44833726 0.02204238
Kr   0.57891405 0.84412891 0.84721893
Kr   0.31484696 0.60847563 0.95241314
Kr   0.30853444 0.43053269 0.15656269
Kr   0.04549735 0.46419954 0.23540318
Kr   0.36286050 0.83546203 0.74933785
Kr   0.19777811 0.54932314 0.49776340
Kr   0.24736612 0.55851972 0.90319306
Kr   0.43660977 0.26893762 0.84811658
Kr   0.78874338 0.09768981 0.32408771
Kr   0.32138023 0.86642146 0.68752205
Kr   0.85479695 0.28605062 0.71880519
Kr   0.89077395 0.87798703 0.71642143
Kr   0.92804593 0.18070924 0.32049736
Kr   0.92907596 0.57433790 0.22445557
Kr   0.43291643 0.36778989 0.85932904
Kr   0.11489111 0.71912891 0.74540907
Kr   0.92374927 0.59471750 0.47458798
Kr   0.48393175 0.03790465 0.23257798
Kr   0.92039436 0.91570044 0.75851971
Kr   0.90482640 -.00281048 0.38562390
Kr   0.87558860 0.56974691 0.65303123
Kr   0.68984699 0.09259859 0.61327255
Kr   0.19030312 0.30073571 0.51359624
Kr   0.64995587 0.87157148 0.03360800
Kr   0.61640668 0.56293410 0.08479989
Kr   0.39443791 0.18818422 0.16952619
Kr   0.81449383 0.16549441 0.54092115
Kr   0.38376987 0.14605650 0.58157736
Kr   0.84698355 0.05120659 0.90072101
Kr   0.68814009 0.00766627 0.44640964
Kr   0.15969688 0.13406415 0.15516481
Kr   0.68347561 0.57271928 0.81475866
Kr   0.28182754 0.45534137 0.98631549
Kr   0.42816362 0.77957624 0.14080341
Kr   0.62092412 0.97058564 0.45794585
Kr   0.86893761 0.66109478 0.06028546
Kr   0.60400236 0.82188052 0.42594174
Kr   0.10565038 0.17485286 0.42591229
Kr   0.69281930 0.12339611 0.22622131
Kr   0.86116838 0.01964391 0.04324603
Kr   0.04980871 0.01227192 0.94749850
Kr   0.61467040 0.69286346 0.11199235
Kr   0.22492643 0.47658917 0.94741029
Kr   0.48106241 0.46140379 0.98443204
Kr   0.71549439 0.15744555 0.60448796
Kr   0.20017658 0.35918188 0.15675397
Kr   0.49901411 0.21266922 0.38173929
Kr   0.51892287 0.58688933 0.00412007
Kr   0.26842260 0.58806652 0.82392585
Kr   0.99106824 0.07995880 0.71992350
Kr   0.44904357 0.23338729 0.10479695
Kr   0.28538847 0.38087112 0.80470866
Kr   0.61183053 0.80309004 0.85688645
Kr   0.19570336 0.66293412 -.00216304
Kr   0.05509123 0.08145968 0.45849031
Kr   0.02505886 0.55701882 0.44651264
Kr   0.89898473 0.13238670 0.33034140
Kr   0.38593292 0.45969686 0.91859919
Kr   0.18329901 0.39457035 0.55601823
Kr   0.87396997 0.30725428 0.46078578
Kr   0.18794879 0.94123012 0.01487640
Kr   0.15819600 0.94461447 0.90130955
Kr   0.53521192 0.41303709 0.05236904
Kr   0.67586815 0.47907591 0.03284285
Kr   0.06815774 0.07595645 0.26492053
Kr   0.31845203 0.99683642 0.24308418
Kr   0.03472631 0.74090642 0.40622425
Kr   0.85697472 0.73549151 0.38743380
Kr   0.52814895 0.85307533 0.71134490
Kr   0.23441730 0.86209536 0.79595351
Kr   0.06446439 0.68953794 0.85429662
Kr   0.63493234 0.90285468 0.38658035
Kr   0.58240145 0.17158623 0.65757799
Kr   0.30651852 0.62550026 0.10659211
Kr   0.81390524 0.13774279 0.59493822
Kr   0.36116832 0.71127135 0.15460566
Kr   0.23166570 0.26175693 0.00282519
Kr   0.28354916 0.85812247 0.17307240
Kr   0.12101236 0.14434962 0.60679811
Kr   0.55540025 0.40588582 0.81127131
Kr   0.72160095 0.45192760 0.02995880
Kr   0.23360801 0.34802827 0.18160683
Kr   0.99180400 0.54209828 0.26443496
Kr   0.20834315 0.87185109 0.46290466
Kr   0.03691878 0.60475278 0.54908770
Kr   0.24409948 0.81524426 0.16467039
Kr   0.95969689 0.91957033 0.47917891
Kr   0.28519717 0.72342557 0.89404058
Kr   0.45463508 0.50453204 0.84870517
Kr   0.35444379 0.66299295 0.06930547
Kr   0.46555328 0.25896117 0.14919069
Kr   0.64473224 0.20906416 0.54576224
Kr   0.59080344 0.21174221 0.71786344
Kr   0.58307827 0.46840790 0.88306355
Kr   0.15104474 0.56225717 0.28819895
Kr   0.65776926 0.99685115 0.75050032
Kr   0.41156563 0.16309594 0.23494703
Kr   0.20782813 0.12756033 0.90172160
Kr   0.48992053 0.15520896 0.82914948
Kr   0.39192173 0.74482048 0.87991464
Kr   0.50628316 0.81804007 0.80113304
Kr   0.27373457 0.56698060 0.00554738
Kr   0.23296057 0.67538255 0.24045026
Kr   0.76228666 0.72135079 0.83250439
Kr   0.69991177 0.46250734 0.89367276
Kr   0.52201301 0.50401706 0.08432902
Kr   0.08243085 0.66386110 0.65353149
Kr   0.29663038 0.38175398 0.04030312
Kr   0.55447322 0.09223073 0.52538264
Kr   0.14870512 0.07026192 0.11369924
Kr   0.57074749 0.01708358 0.33853737
Kr   0.81124192 0.69663036 0.55849034
Kr   0.09511478 0.22173338 0.48250443
Kr   0.20787227 0.43447617 0.80366391
Kr   0.99140674 0.41116834 0.53020895
Kr   0.06714244 0.18140082 0.70194232
Kr   0.26915833 0.52447033 0.07189523
Kr   0.88456446 0.09293702 0.68552095
Kr   0.75726902 0.25175104 0.93563861
Kr   0.47324896 0.11611242 0.63997942
Kr   0.55258977 0.40929958 0.97919363
Kr   0.00191289 0.35771042 0.46731904
Kr   0.15909359 0.40876988 0.21699528
Kr   0.73082697 0.80423778 0.16962919
Kr   0.02283696 0.98394650 0.50148618
Kr   0.85375220 0.55825484 0.27647144
Kr   0.09626251 0.83179814 0.11346380
Kr   0.78356385 0.03997940 0.38191584
Kr   0.00173632 0.49866098 0.58868450
Kr   0.23112124 0.30525312 0.07351383
Kr   0.99530607 0.97354329 0.57775164
Kr   0.05092702 0.19933784 0.46055034
Kr   0.05359035 0.68927306 0.80016190
Kr   0.55498821 0.49006769 0.97339612
Kr   0.84558564 0.38928780 0.15088287
Kr   0.52304298 0.95788699 0.88462329
Kr   0.65141261 0.15035316 0.52410239
Kr   0.81369925 0.02258682 0.68094468
Kr   0.40295762 0.56442028 0.99199533
Kr   0.36577398 0.36494997 0.15912302
Kr   0.64271635 0.74527663 0.93301946
Kr   0.34686580 0.14384933 0.66833431
Kr   0.15331076 0.28316656 0.77782518
Kr   0.99745440 0.43479988 0.23891994
Kr   0.76259565 0.55863744 0.95484108
Kr   0.38187170 0.92304295 0.23599176
Kr   0.82192469 0.71447909 0.81534725
Kr   0.41252208 0.68244559 0.13647734
Kr   0.99155390 0.65428191 0.67461741
Kr   0.32533845 0.15410535 0.31112418
Kr   0.00166274 0.95270753 0.52823716
Kr   0.88841963 0.40211889 0.95565039
Kr   0.13850795 0.04000883 0.36191878
Kr   0.04351089 0.11031490 0.05932902
Kr   0.53306359 0.35751915 0.07139494
Kr   0.69708651 0.57866395 0.87416130
Kr   0.41375810 0.76274276 0.99902880
Kr   0.56308120 0.85288411 0.45710713
Kr   0.70191288 0.10840201 0.87654501
Kr   0.68443203 0.20631254 0.59018540
Kr   0.44743970 0.64504123 0.06774574
Kr   0.05052973 0.13324015 0.72575045
Kr   0.62165982 0.67979699 0.89964688
Kr   0.96059442 0.48866978 0.61433196
Kr   0.11896704 0.42266041 0.63428485
Kr   0.10902001 1.00453210 0.22963507
Kr   0.41319895 0.17838435 0.09265745
Kr   0.19577694 0.74130374 0.01496468
Kr   0.92402887 0.42614776 0.41006476
Kr   0.12026192 0.76007944 0.27155679
Kr   0.18958211 0.83828723 0.27349913
Kr   0.56327248 0.09031784 0.93372577
Kr   0.17245439 0.83647734 0.47327843
Kr   0.09025897 0.90907884 0.42173338
Kr   0.97942901 0.16060919 0.45094174
Kr   0.75673926 0.54433489 0.16774572
Kr   0.50625366 0.94292235 0.71728963
Kr   0.81265450 0.85715127 0.89636552
Kr   0.66110951 0.06478811 0.45557681
Kr   0.41496471 0.60606241 0.85981458
Kr   0.42101237 0.83540314 0.28591818
Kr   0.98324013 0.50466454 0.94957322
Kr   0.21927606 0.23485875 0.88547671
Kr   0.57530898 0.75361979 0.84417301
Kr   0.16636257 0.17398471 0.77984113
Kr   0.68126839 0.12366098 0.57233667
Kr   0.70977044 0.27029133 0.92544144
Kr   0.17168923 0.69991177 0.39330488
Kr   0.00751913 0.20347263 0.93265158
Kr   0.08752207 0.16609770 0.63777220
Kr   0.62826663 0.54359919 0.14564450
Kr   0.50595939 0.12407299 0.54324603
Kr   0.16424367 0.10229547 0.96105069
Kr   0.93009126 0.54849917 0.11536198
Kr   0.39302531 0.94723368 0.37341085
Kr   0.08721307 0.74058270 0.10328134
Kr   0.56431729 0.50394350 0.82923782
Kr   0.17488229 0.82210124 0.17145380
Kr   0.90519422 0.36099178 0.83318132
Kr   0.60001475 0.34139201 0.92132133
Kr   0.87513244 0.20169216 0.59827840
Kr   0.68699235 0.56631839 0.98831666
Kr   0.29412889 0.50862277 0.00943202
Kr   0.20155974 0.95007360 0.86709833
Kr   0.60386997 0.08559447 0.96122718
Kr   0.66505295 0.46010888 0.92935550
Kr   0.38488817 0.80122131 0.17901708
Kr   0.45295763 0.08135668 0.66986459
Kr   0.12738375 0.87145376 0.46887875
Kr   0.36730430 0.99127424 0.17575045
Kr   0.81564158 0.60460567 0.49098000
Kr   0.91543555 0.35416421 0.03599176
Kr   0.40865216 0.20682755 0.40219247
Kr   0.78516775 0.81271333 0.62011480
Kr   0.03082696 0.29636553 0.65316361
Kr   0.71656859 0.93246025 0.01834903
Kr   0.95806360 0.05123602 0.34298116
Kr   0.63777220 0.02814891 0.49424663
Kr   0.52161568 0.99595350 0.46884933
Kr   0.24832253 0.81269866 0.10200118
Kr   0.87361681 0.34783697 0.06449382
Kr   0.13581517 0.38532960 0.31848145
Kr   0.80179518 0.13069452 0.06618600
Kr   0.27689818 0.90392882 0.21957034
Kr   0.53582990 0.14409947 0.58528548
Kr   0.14564450 0.24414361 0.15005887
Kr   0.72498530 0.78728670 0.88655090
Kr   0.48082694 0.42857563 0.79542375
Kr   0.10342848 0.12694232 0.75974101
Kr   0.07806062 0.91018248 0.37374926
Kr   0.72573572 0.80707771 0.12152737
Kr   0.69315773 0.24012655 0.19708653
Kr   0.72008538 0.16659799 0.25899059
Kr   0.40957916 0.35404652 0.94607121
Kr   0.31870219 0.83936137 0.61241907
Kr   0.65451735 0.95788699 0.54252499
Kr   0.41898176 0.67052680 0.93385816
Kr   0.81394941 0.72947323 0.51726013
Kr   0.92760450 0.90760744 0.37392586
Kr   0.58150387 0.88062096 0.78730136
Kr   0.49284872 0.71597999 0.07260153
Kr   0.24532080 0.54092115 0.04114185
Kr   0.26765746 0.37424958 0.37354326
Kr   -.00378164 0.74121547 0.19277516
Kr   0.51240438 0.52330780 0.14134786
Kr   0.84860218 0.60690111 0.73487347
Kr   0.23060624 0.56908476 0.16711302
Kr   0.74211299 0.11736315 0.59439379
Kr   0.24608594 0.11090348 0.22479400
Kr   0.64270163 0.37925249 0.04502648
Kr   0.80582696 0.07364626 0.71799588
Kr   0.89261329 0.25089759 0.12901707
Kr   0.61072689 0.40261918 0.95632720
Kr   0.50591522 0.86343437 0.42183638
Kr   0.28234255 0.20559153 0.41648030
Kr   0.02713361 0.19345203 0.89173043
Kr   0.13802236 0.10713656 0.25544438
Kr   0.87105650 0.09315774 0.29888171
Kr   0.51562685 0.51852560 0.91958505
Kr   0.73173928 0.04923484 0.53198940
Kr   0.99920541 0.66138911 0.95069158
Kr   0.60520899 0.42196882 0.82660389
Kr   0.15863743 0.12052678 0.80927020
Kr   0.61677456 0.14804296 0.86717188
Kr   0.10133903 0.14211302 0.70223659
Kr   0.73307830 0.98861092 0.36130080
Kr   0.99914658 0.14804296 0.53541791
Kr   0.66659796 0.46394938 0.99175990
Kr   0.33965570 0.94755745 0.30285463
Kr   0.91467041 0.94305468 0.52095348
Kr   0.31923190 0.57305771 0.81077105
Kr   0.00847557 0.72185111 0.43475574
Kr   0.56415540 0.93761039 0.30697468
Kr   0.97151268 0.23287228 0.87672162
Kr   0.66183048 0.96728957 0.27897292
Kr   0.89836669 0.75409067 0.18490289
Kr   0.07838435 0.65373755 0.42622131
Kr   0.69916129 0.63992053 0.14777811
Kr   0.90419370 0.82085049 0.70133901
Kr   0.79614478 0.26726016 0.91486168
Kr   0.78696293 0.12772219 0.42948794
Kr   0.86343437 0.01731901 0.24836668
Kr   0.20442908 0.89830786 0.05119188
Kr   0.15369335 0.39384934 0.08612420
Kr   0.83942026 0.01269865 0.87157148
Kr   0.18652149 0.49434963 0.02241024
Kr   0.65036792 0.55339909 0.87316072
Kr   0.44592407 0.02220424 0.74852854
Kr   0.82339615 0.83578575 0.07317540
Kr   0.10406122 0.56571513 0.58350497
Kr   0.29844025 0.90155977 0.84579164
Kr   0.97161561 0.56442028 0.46472925
Kr   0.44640964 0.91038847 0.47111535
Kr   0.96739262 0.77476460 0.64346677
Kr   0.88120955 0.52007067 0.77482343
Kr   0.62667745 0.54564452 0.96350801
Kr   0.58151853 0.20047086 0.28815481
Kr   0.91530311 0.47336668 0.48144498
Kr   0.15629782 0.82324898 0.58755153
Kr   0.07438198 0.22604474 0.75726902
Kr   0.15547381 0.74974984 0.52361685
Kr   0.11912890 0.10693055 0.20154501
Kr   0.93079752 0.08971454 0.64312834
Kr   0.25328133 0.83123899 0.41366982
Kr   0.35279575 0.24880813 0.87130666
Kr   0.28402001 0.34284872 0.08356386
Kr   0.57135075 0.80977046 0.50207472
Kr   0.86334610 0.59086227 0.36630371
Kr   0.16400824 0.17701589 0.62270457
Kr   0.06555326 0.06403767 0.76394939
Kr   0.60606241 0.47414654 0.84533554
Kr   0.38475576 0.51770157 0.98605067
Kr   0.10591525 0.09268687 0.14118600
Kr   0.09103885 0.76581812 0.22514714
Kr   0.13184226 0.06701001 0.06277221
Kr   0.39535022 0.94883758 0.31078577
Kr   0.64167160 0.61614186 0.96228671
Kr   0.66225719 0.55974102 0.12266040
Kr   0.51243383 0.16122720 0.08459388
Kr   0.51943791 0.94379050 0.19502649
Kr   0.32461745 0.35386992 0.12647146
Kr   0.09299588 0.45437023 0.37667748
Kr   0.81761330 0.50927019 0.47376397
Kr   0.53839022 0.61961448 0.18110652
Kr   0.05267804 0.57959092 0.23709537
Kr   0.46331665 0.07299882 0.27900237
Kr   0.60214835 0.36909947 0.99220133
Kr   0.13761036 0.56499410 0.43468219
Kr   0.22105651 0.38062096 0.94274575
Kr   0.76877576 0.19171572 0.26252207
Kr   0.69526196 0.94399649 0.88251919
Kr   0.69947028 0.19802825 0.80653328
Kr   0.10309006 0.40357563 0.89901412
Kr   0.42338142 0.47505885 0.89226019
Kr   0.09287816 0.38237199 0.21812832
Kr   0.23625661 0.77733958 0.34434962
Kr   0.08051796 0.24277517 0.62285167
Kr   0.81830490 0.21305180 0.23731607
Kr   0.09226015 0.82457328 0.85051501
Kr   0.41530314 0.95738673 0.56823134
Kr   0.59482050 0.18090053 0.52502942
Kr   0.08803708 0.11899647 0.23557976
Kr   0.75155973 0.10573867 0.20872574
Kr   0.84203941 0.35988817 0.46187463
Kr   0.01056504 0.36196294 0.83228374
Kr   0.07788406 0.70256031 0.31309593
Kr   0.36824602 0.69576222 0.88571221
Kr   0.98006189 0.64476162 0.62552977
Kr   0.18213655 0.92991465 0.47342554
Kr   0.14470276 0.44365802 0.19072984
Kr   0.85570925 0.94845498 0.64979398
Kr   0.91122717 0.89992642 0.50291348
Kr   0.94186288 0.06319894 0.59115654
Kr   0.68194526 0.67239553 0.89148027
Kr   0.94511485 0.78344613 0.54490882
Kr   0.42319012 0.26484698 0.02273396
Kr   0.01703943 0.27045318 0.40094173
Kr   0.79078871 0.38997942 0.06059447
Kr   0.20612125 0.59835202 0.70670986
Kr   0.84977931 0.71664214 0.19040611
Kr   0.36262506 0.36992347 0.86650974
Kr   0.02220424 0.50974101 0.89050913
Kr   0.35155976 0.66381693 0.84377575
Kr   0.57781053 0.44729254 0.10002943
Kr   0.01524426 0.37800175 0.67941439
Kr   0.09510006 0.92410237 0.04532078
Kr   0.56737787 0.25392878 0.99277520
Kr   0.93993527 0.69127429 0.44935256
Kr   0.81137431 0.04261330 0.62742788
Kr   0.85634196 0.46093291 0.65367866
Kr   0.46801060 0.27095351 0.88540322
Kr   0.93092996 0.86730433 0.52926725
Kr   0.43028253 0.56366980 0.06983519
Kr   0.19168629 0.28374046 -.00057387
Kr   0.04576221 0.74125957 0.57520598
Kr   0.03762507 0.75662154 0.51977634
Kr   0.25451738 0.62904650 0.13184226
Kr   0.10688640 0.62246913 0.58153325
Kr   0.00879929 0.12118894 0.12644203
Kr   0.19170099 0.87410241 0.32501471
Kr   0.82373452 0.08635962 0.54949975
Kr   0.58232784 0.18665393 0.95445848
Kr   0.91703939 0.06256621 0.96570039
Kr   0.53066510 0.57127726 0.08122425
Kr   0.69352561 0.41734844 0.99486464
Kr   0.96998233 0.47370514 0.73958212
Kr   0.75517952 0.14033255 0.91745144
Kr   0.99929374 0.21723072 0.50036788
Kr   0.75776929 0.60002941 0.18431431
Kr   0.94211304 0.71062386 0.95603299
Kr   0.82195413 0.30203059 0.22725134
Kr   0.07550029 0.73899353 0.43800765
Kr   0.34454092 0.71705413 0.10105945
Kr   0.13691878 0.98799288 0.90060335
Kr   0.67151266 0.29507062 0.03940553
Kr   0.92785460 0.18032667 0.96621543
Kr   0.10002943 0.78303415 0.33765450
Kr   0.43822837 0.04302531 0.51745147
Kr   0.89243674 0.26646557 0.92485285
Kr   0.89690995 0.87856096 0.23756622
Kr   0.93961155 0.01333137 0.63725722
Kr   0.23479988 0.02929665 0.58724248
Kr   0.48841968 0.07020306 0.98619783
Kr   0.11492054 0.62972337 0.23097409
Kr   0.71512651 0.85281050 0.81892288
Kr   0.33684522 0.57474989 0.13422601
Kr   0.72664803 0.70887285 0.98097414
Kr   0.65891701 0.88971454 0.46998236
Kr   0.74358445 0.62198353 0.93251914
Kr   0.14985286 0.98337263 0.46817246
Kr   0.30298704 0.10375221 0.57950264
Kr   0.61755449 0.43325487 0.91736317
Kr   0.85320777 0.28201884 0.84343731
Kr   0.44118598 0.83647734 0.54798412
Kr   0.98075342 0.56874633 0.20829901
Kr   0.93135667 0.72756034 0.47820780
Kr   0.17061508 0.20107417 0.72535312
Kr   0.51391995 0.73397589 0.14143614
Kr   0.91982049 0.60912299 0.05000000
Kr   0.72557390 0.46090347 0.85506183
Kr   0.75150084 0.96796644 0.05060330
Kr   0.08768393 0.16405238 0.88593292
Kr   0.16464096 0.09543850 0.66343439
Kr   0.31225723 0.74105358 0.03491760
Kr   0.83496177 0.19498235 0.70600355
Kr   0.63522661 0.13608006 0.74208355
Kr   0.80647439 0.69811654 0.44345203
Kr   0.29873455 0.15204532 0.77644199
Kr   0.19939670 0.78503537 0.68705124
Kr   0.41396409 0.83073866 0.96290469
Kr   0.50528252 0.02274868 0.97261626
Kr   0.96493530 0.43546203 0.78375518
Kr   0.98315191 0.15862271 0.58241618
Kr   0.60178047 0.23338729 0.95420837
Kr   0.41350794 0.77458799 0.08819894
Kr   0.80545908 0.24470276 0.49821955
Kr   0.88909656 0.71777517 0.60437024
Kr   0.61668628 0.06955563 0.47499996
Kr   0.05793114 0.29633608 0.40269276
Kr   0.49056798 0.85857856 0.83284283
Kr   0.20113301 0.90160388 0.37885520
Kr   0.64156860 0.83708066 0.85616541
Kr   0.80194235 0.78962624 0.66303712
Kr   0.47324896 0.09833726 0.41208062
Kr   0.24923484 0.50447321 0.81152153
Kr   0.92892879 0.05153031 0.54205418
Kr   0.52863449 0.14315774 0.17068864
Kr   0.66780460 0.08911125 0.83516777
Kr   0.15704827 0.73238671 0.43443203
Kr   0.48927310 0.17613302 0.18275456
Kr   0.42308712 0.60409063 0.93271047
Kr   0.29974985 0.51007950 0.91147733
Kr   0.93038553 0.37619188 0.98234260
Kr   0.50248677 0.08094467 0.24015597
Kr   0.44290760 0.13047381 0.88056207
Kr   0.39278987 0.13890523 0.64168632
Kr   0.07613302 0.05342849 0.84237790
Kr   0.27371982 0.93360806 0.02859035
Kr   0.26141849 0.07243967 0.59102416
Kr   0.89754272 0.76911420 0.09386404
Kr   0.49168631 0.18418188 0.56586230
Kr   0.15709241 0.11121248 0.05894644
Kr   0.09705710 0.30489996 0.09533549
Kr   0.28862566 0.36155090 0.97567689
Kr   0.16942319 0.07683932 0.36783400
Kr   0.44991171 0.59458506 0.98634487
Kr   0.01281636 0.68151855 0.77336669
Kr   0.51904058 0.50831372 0.86804003
Kr   0.87245440 0.25935844 0.60186875
Kr   0.45831370 0.52369040 0.13478516
Kr   0.91961449 0.58644789 0.68001765
Kr   0.63769865 0.08015009 0.60079461
Kr   0.05476751 0.32302824 0.61194825
Kr   0.85257506 0.45541498 0.84267217
Kr   0.97663337 0.08431430 0.22491172
Kr   0.78269571 0.24852854 0.83478516
Kr   0.75849032 0.03537375 0.85086817
Kr   0.97227776 0.38272515 0.03861095
Kr   0.62241024 0.90882874 0.21265450
Kr   0.84657156 0.97195411 0.04577693
Kr   0.84314305 0.31288993 0.30164802
Kr   0.44337845 0.85310477 0.91312540
Kr   0.26400822 0.79804301 0.02068864
Kr   0.87296939 0.13814008 0.38659507
Kr   0.11702472 0.77223366 0.87998825
Kr   0.91263980 0.94685107 0.60578281
Kr   0.91497940 0.26371396 0.27029133
Kr   0.03871395 0.21430254 0.40153033
Kr   0.67132139 0.13896410 0.68287230
Kr   0.93000293 0.96770161 0.56942320
Kr   0.67027664 0.15172160 0.34904358
Kr   0.97441143 0.82995880 0.34661564
Kr   0.60715127 0.80439967 0.97527957
Kr   0.79437906 0.61565626 0.80122131
Kr   0.53515303 0.89933783 0.48696294
Kr   0.97239554 0.21115363 0.54398179
Kr   0.58279866 0.64270163 0.87482345
Kr   0.64864630 0.87569159 0.78650677
Kr   0.79393762 0.53560919 0.07888464
Kr   0.39404061 1.00278103 0.50912297
Kr   0.65659213 0.94842559 0.37536788
Kr   0.50654799 0.77192467 0.04751325
Kr   0.94627720 0.35804886 0.53788996
Kr   0.88075340 0.48400533 0.04832254
Kr   0.14832254 0.48624188 0.62597120
Kr   0.89997059 0.75722480 0.36717185
Kr   0.58599180 0.01764273 0.57429367
Kr   0.26053560 0.16575928 0.68884635
Kr   0.21671571 0.44526193 0.01243379
Kr   0.08028252 0.46027076 0.50148618
Kr   0.91511184 0.91829020 0.70959389
Kr   0.00974102 0.04974985 0.46596527
Kr   0.02654503 0.76146263 0.04064155
Kr   0.86701006 0.88042969 0.91559738
Kr   0.73412299 0.82329315 0.97029138
Kr   0.15032372 0.51631844 0.28009123
Kr   0.05903473 0.16362566 0.95812243
Kr   0.32466155 0.89459980 0.60170686
Kr   -.00469394 0.15229547 0.80603296
Kr   0.65775460 0.44462919 0.83996469
Kr   0.26664215 0.95048559 0.35925546
Kr   0.85547382 0.78684521 0.65417892
Kr   0.92195410 0.46110949 0.77158624
Kr   0.62407297 0.07816362 0.34640965
Kr   0.40609181 0.16948205 0.95612121
Kr   0.39312831 0.71358150 0.10769570
Kr   0.15376692 0.89670396 0.44343731
Kr   0.89178926 0.39748383 0.04111242
Kr   0.68013537 0.91359627 0.93360806
Kr   0.86780465 0.47282225 0.61081523
Kr   0.72869337 0.89295179 0.76399356
Kr   0.64523250 0.55946147 0.21072690
Kr   0.38287228 0.25347263 0.00941730
Kr   0.12663332 0.88715422 0.89228958
Kr   0.12358741 0.08994997 0.00902001
Kr   0.40197176 0.99455559 0.84024429
Kr   0.47271925 0.87065917 0.61724550
Kr   0.12268982 0.67424953 0.31890818
Kr   0.45878461 0.92834020 0.73126841
Kr   0.51758385 0.05067687 0.55264860
Kr   0.13824309 0.17373456 0.56621540
Kr   0.32093880 0.75110358 0.08655091
Kr   0.71386111 0.25448793 0.14816068
Kr   0.17982636 0.43531489 0.35497352
Kr   0.63225424 0.49527663 0.88266629
Kr   0.00531195 0.18649206 0.70735723
Kr   0.15609182 0.36369923 0.04368747
Kr   0.96109480 0.62193936 0.71839315
Kr   0.87941438 0.39736608 0.87831074
Kr   0.82629490 0.70570922 0.06976163
Kr   0.39239258 0.42302826 0.87794292
Kr   0.87577993 0.17154208 0.66389054
Kr   0.89390820 0.10818129 0.59006774
Kr   0.33019423 0.13072395 0.39760154
Kr   0.56827545 0.98839021 0.28017953
Kr   0.06686287 0.80014712 0.19370218
Kr   0.68488812 0.46970275 0.81066805
Kr   0.84193641 0.35849032 0.80397296
Kr   0.33100355 0.02647145 0.04070041
Kr   0.99052387 0.38646263 0.93843442
Kr   0.83505005 0.53306359 0.75210416
Kr   0.20944674 0.01278693 0.53118008
Kr   0.48354915 0.77751619 0.00254561
Kr   0.20108889 0.50828427 0.79901409
Kr   0.33082697 0.11590642 0.82407302
Kr   0.23381402 0.95072103 0.81511188
Kr   0.15703355 0.29605651 0.61316955
Kr   0.98711008 0.57937026 0.53372574
Kr   0.36112419 0.16241908 0.26998234
Kr   0.94309890 0.54730725 0.17004120
Kr   0.88076806 0.99673337 0.94738084
Kr   0.04957328 0.91876101 0.71496469
Kr   0.79136252 0.68585932 0.91918772
Kr   0.26300767 0.61790758 0.89389348
Kr   0.71456742 0.20438494 0.31884933
Kr   0.82479405 0.99972045 0.17944379
Kr   0.43382871 0.45238376 0.16849618
Kr   0.46143320 0.34842557 0.97096825
Kr   0.37867865 0.09602708 0.54886699
Kr   0.60743082 0.29866099 0.89707184
Kr   0.48013538 0.50972629 0.96503824
Kr   0.46640673 0.07972337 0.36203650
Kr   0.28490287 0.15279576 0.82536787
Kr   0.70773983 0.89948505 0.32282224
Kr   0.07338140 0.87329310 0.97018832
Kr   0.89796942 0.11527369 0.79183346
Kr   0.12196880 0.31156564 0.20601825
Kr   0.34919071 0.54152441 0.91050619
Kr   0.59938198 0.67093879 0.15725428
Kr   0.47544146 0.12937021 0.36702475
Kr   0.43465275 0.36203650 0.14599764
Kr   0.17192467 0.17042378 0.91733372
Kr   0.16328724 0.55319309 0.23553561
Kr   0.20101531 0.03690406 0.26418483
Kr   0.42670691 0.70367861 0.17449971
Kr   0.43549147 0.02301354 0.32922310
Kr   0.46371394 0.14454091 0.21356681
Kr   0.43219540 0.60704827 0.05389936
Kr   0.13131253 0.74692470 0.82964981
Kr   0.06221307 0.91350794 0.77692759
Kr   0.23285757 0.69960266 0.79000884
Kr   0.20295763 0.19945557 0.25439966
Kr   0.58440256 0.18301941 0.81080049
Kr   0.94507062 0.53705120 0.35100061
Kr   0.57461739 0.79080343 0.89846975
Kr   0.62142438 0.10735727 0.42579460
Kr   0.34955856 0.96631837 0.92011476
Kr   0.63365215 0.27772221 0.01805474
Kr   0.07932607 0.13891995 0.44733667
Kr   0.58468217 0.95322245 0.04305474
Kr   0.74227488 0.56224251 0.90410537
Kr   0.67161566 0.58722782 0.06339023
Kr   0.91570044 0.00253090 0.03246027
Kr   0.55953503 0.03460860 0.51727486
Kr   0.51905537 0.03797822 0.70932907
Kr   0.64387876 0.83067983 0.93837553
Kr   0.15523838 0.67917895 0.95473814
Kr   0.52586818 0.91528839 0.33132726
Kr   0.67561805 0.03240141 0.83176869
Kr   0.02139494 0.95670980 0.12158622
Kr   0.02795762 0.55540025 0.28597704
Kr   0.54501182 0.12399942 0.46658328
Kr   0.86055034 0.42825192 0.39153913
Kr   0.28843436 0.96656865 0.83532965
Kr   0.38956740 0.38106239 0.04979400
Kr   0.68588877 0.21286051 0.15188345
Kr   0.26046205 0.03641848 0.68671274
Kr   0.89276046 0.43246028 0.67901707
Kr   0.91397882 0.42804593 0.73325485
Kr   0.09507063 0.52582401 0.95894641
Kr   0.88072395 0.34496763 0.56733376
Kr   0.28897882 0.04352560 0.55388463
Kr   0.16128606 0.29070044 0.86756915
Kr   0.25837258 0.00491466 0.52947325
Kr   0.16812831 0.92791349 0.20207475
Kr   0.18325487 0.28393173 0.04558564
Kr   0.87597114 0.76228666 0.42472044
Kr   0.86425841 0.87866396 0.50231022
Kr   0.84221601 0.72555912 0.30567983
Kr   0.13026780 0.13294585 0.65588582
Kr   0.22698645 0.95943207 0.98081225
Kr   0.60114777 0.91261035 0.92474985
Kr   0.20578282 0.17505887 0.36533254
Kr   0.45425251 0.96618605 0.48129782
Kr   0.48818421 0.97695702 0.52888465
Kr   0.88728666 0.74501181 0.64202476
Kr   0.85063273 0.14632137 0.68368161
Kr   0.84617424 0.01032961 0.08690406
Kr   0.43528548 0.75787228 0.84065628
Kr   0.23588876 0.25609180 0.14736611
Kr   0.55985874 0.99120069 0.85906416
Kr   0.58608007 0.88003236 0.56494999
Kr   0.08444674 0.17717776 0.75687170
Kr   0.10927016 0.56709832 0.39312831
Kr   0.59248090 0.09462920 0.24045026
Kr   0.82786936 0.08418187 0.37120363
Kr   0.80467921 0.01912890 0.05969688
Kr   0.85793114 0.71021187 0.45019129
Kr   0.08843438 0.43363744 0.84902889
Kr   0.16852561 0.63925838 0.66443497
Kr   0.16977634 0.71911418 0.34652737
Kr   0.21528840 0.34886697 0.39034727
Kr   0.48475575 0.05982931 0.11149206
Kr   0.18057682 0.96742207 0.43462333
Kr   0.38522661 0.27613303 0.84359920
Kr   0.31188935 0.72339612 0.13360800
Kr   0.08312242 0.28878751 0.35258976
Kr   0.18413773 0.45956445 0.86658329
Kr   0.41155091 0.04777810 0.46804005
Kr   0.05581224 0.00882872 0.32124782
Kr   0.12960565 0.67491174 0.44640964
Kr   0.16184519 0.92243969 0.85954976
Kr   0.05107416 -.00231018 0.68575633
Kr   0.72257209 0.97792816 0.22658917
Kr   0.40979990 0.13575633 0.27666274
Kr   0.91393471 0.32645676 0.67806065
Kr   0.86733371 0.17988524 0.76927602
Kr   0.22573572 0.55788702 0.98494697
Kr   0.38341671 0.44942611 0.15554738
Kr   0.33790466 0.16050619 0.01543555
Kr   0.91216892 0.48109183 0.90170687
Kr   0.31135961 0.46230134 0.11436139
Kr   0.54202473 0.84343731 0.89298117
Kr   0.06649500 0.29240730 0.20222190
Kr   0.75183934 0.03013538 0.93066514
Kr   0.61698061 0.85353148 0.47301355
Kr   0.96384639 0.99345201 0.76808417
Kr   0.05665097 0.50597411 0.13157740
Kr   0.16842261 0.42308712 0.00716598
Kr   0.57932603 0.70653325 0.02135079
Kr   0.16793703 0.97552967 0.53788996
Kr   0.75585639 0.91399354 0.34721896
Kr   0.54186291 0.16695115 0.82255739
Kr   0.47569159 0.99598289 0.31856975
Kr   0.91915834 0.22622131 0.33631548
Kr   0.51296353 0.83853740 0.95863748
Kr   0.79919070 0.03209241 0.77401417
Kr   0.34632134 0.98428488 0.66125661
Kr   0.66527373 0.97826666 0.97255743
Kr   0.42856091 0.99237788 0.66648024
Kr   0.17763390 0.12707475 0.55750442
Kr   0.32089466 0.10532667 0.67713362
Kr   0.53394645 0.87168926 0.25310478
Kr   0.08054738 0.13115068 0.28543261
Kr   0.91294879 0.34245145 0.46177164
Kr   0.24359918 0.81390524 0.58172458
Kr   0.28044438 0.84346676 0.58387285
Kr   0.09966157 0.94526190 0.95548850
Kr   0.05060330 0.14966156 0.49549735
Kr   0.19767511 0.70500290 0.97024727
Kr   0.17794292 0.74533552 0.27210125
Kr   0.68522662 0.55670983 0.93354917
Kr   0.82645673 0.08584461 0.28487346
Kr   0.62558860 0.60457623 0.79782230
Kr   0.97620666 0.07760448 0.51135963
Kr   0.57585341 0.39551207 0.15163332
Kr   0.10598882 0.43357858 0.11986463
Kr   0.81739259 0.19331959 0.28992054
Kr   0.04994114 0.51012361 0.42913479
Kr   0.35503238 0.94467330 0.48587406
Kr   0.12505886 0.35766625 0.08218069
Kr   0.63585937 0.88129783 0.90498823
Kr   0.82729548 0.59514421 0.82603002
Kr   0.19183344 0.18866980 0.87077695
Kr   0.53198940 0.14396705 0.42292526
Kr   0.18235727 0.50668037 0.97283697
Kr   0.99642444 0.32900235 0.52552974
Kr   0.59312826 0.20984402 0.46914360
Kr   0.18428488 0.97500002 0.73908186
Kr   0.23565333 0.73006183 0.89226019
Kr   0.88812536 0.13922895 0.13512360
Kr   0.24429075 0.01820188 0.03079753
Kr   0.23210713 0.12956151 0.11634786
Kr   0.12557387 0.31230137 0.71589172
Kr   0.61577398 0.90311950 0.29548264
Kr   0.32504416 0.65120661 0.02586816
Kr   0.12726605 0.70389938 0.63669807
Kr   0.03961154 0.25080931 0.28444672
Kr   0.40572396 0.08687463 0.21718659
Kr   0.21334608 0.66952622 0.04692466
Kr   0.11749559 0.63507944 0.87654501
Kr   0.21127133 0.39206886 0.10762213
Kr   0.91636258 0.21687758 0.52195412
Kr   0.05874044 0.12082108 0.92536789
Kr   0.44861686 0.98399061 0.27236611
Kr   0.09879341 0.89976454 0.26418483
Kr   0.38328430 0.62904650 0.10022072
Kr   0.86193347 0.25239846 0.04627722
Kr   0.11493526 0.21849617 0.86464101
Kr   0.44164214 0.24412890 0.94168633
Kr   0.94426131 0.61252207 0.41125661
Kr   0.03179812 0.49196583 0.49471745
Kr   0.71336079 0.51851088 0.81375813
Kr   0.12991467 0.69970566 0.50376695
Kr   0.17123309 0.22595644 0.35317835
Kr   0.79698348 0.17598587 0.20304590
Kr   0.89788115 0.72555912 0.73278397
Kr   0.75188345 0.43812537 0.07414656
Kr   0.88031197 0.04518835 0.20732784
Kr   0.93235725 0.23524132 0.78530020
Kr   0.21542084 0.29240730 0.21258092
Kr   0.73914063 0.53349030 0.08811066
Kr   0.90718073 0.32054150 0.12657446
Kr   0.06739258 0.66343439 0.56815773
Kr   0.85075045 0.60987341 0.07814891
Kr   0.14727780 0.03994997 0.20155974
Kr   0.76452327 0.58156270 0.12396999
Kr   0.85591525 0.06709829 0.65005887
Kr   0.05590053 0.72533840 0.05378164
Kr   0.71683341 0.04869041 0.81105059
Kr   0.84355503 0.84980869 0.57199824
Kr   0.74234843 0.66013831 0.01377281
Kr   0.89743972 0.32720718 0.62313128
Kr   0.06987935 0.78977340 0.87982637
Kr   0.27377871 0.16753973 0.96347851
Kr   0.09998529 0.24296644 0.57349908
Kr   0.53880227 0.86724544 0.84139198
Kr   0.98374051 0.47842848 0.91188937
Kr   0.81767219 0.47424957 0.05264862
Kr   0.83853740 0.16130076 0.95815182
Kr   0.80303121 0.83212185 0.13007651
Kr   0.10562096 0.62994409 0.33869922
Kr   0.92136556 0.31100649 0.54096526
Kr   0.70150089 0.18328430 0.41542086
Kr   0.97576523 0.22032078 0.39848441
Kr   0.96643615 0.18434373 0.51319891
Kr   0.15019129 0.05072101 0.65434080
Kr   0.09099470 0.70257509 0.14624779
Kr   0.51128608 0.68507946 0.90534139
Kr   0.22594173 0.87669224 0.20554738
Kr   0.84246618 0.39034727 0.03758093
Kr   0.48765448 0.54121542 0.86019719
Kr   0.42414656 0.20935844 0.04333431
Kr   0.22776634 0.96237493 0.75485581
Kr   0.53552091 0.17391112 0.28391701
Kr   0.41839316 0.53431433 0.11453796
Kr   0.93743378 0.50172162 0.86848146
Kr   0.80279577 0.39170101 0.18253385
Kr   0.47878161 0.55414951 0.06893761
Kr   0.72114480 0.39680693 0.09761624
Kr   0.92087996 0.16628899 0.85615069
Kr   0.08740436 0.24052384 0.32903180
Kr   0.70008826 0.00515009 0.62274867
Kr   0.95685697 0.67120367 0.58665389
Kr   0.95412010 0.96249270 0.50329602
Kr   0.84253973 0.88680106 0.44482049
Kr   0.14835197 0.23073867 0.81471455
Kr   0.06440553 0.42364627 0.09089170
Kr   0.19923484 0.20094174 0.50388461
Kr   0.82098293 0.13266627 0.37867865
Kr   0.17185108 0.32616246 0.89384931
Kr   0.27879637 0.70201588 0.96867275
Kr   0.88543260 0.16184519 0.18577105
Kr   0.71172750 0.87080640 0.93725723
Kr   0.17110065 0.22547087 0.85807824
Kr   0.97781056 0.83818424 0.25748971
Kr   0.28758094 0.03663920 0.42926723
Kr   1.00042665 0.03378458 0.71259570
Kr   0.53942025 0.53936136 0.96234554
Kr   0.10189818 0.46684813 0.61570042
Kr   0.43050325 0.13955268 0.07385227
Kr   0.86286050 0.64820480 0.28987640
Kr   0.30906415 0.07928193 0.41926134
Kr   0.92239553 0.83482933 0.75295764
Kr   0.73266625 0.96686286 0.59445262
Kr   0.29145086 0.43035609 0.03095939
Kr   0.18232784 0.10469393 0.72661859
Kr   0.67352855 0.95663625 0.45576811
Kr   0.82273394 0.33179811 0.34543848
Kr   0.49874929 0.73683053 0.97332257
Kr   0.93887579 0.07672161 0.41712773
Kr   0.05507652 0.50038260 0.04430547
Kr   0.75030905 0.58844912 0.07157151
Kr   0.02547086 0.24817538 0.12442614
Kr   0.98201883 0.01642143 0.60088283
Kr   0.45148617 0.31421426 0.06768687
Kr   0.07978223 0.85145676 0.75878459
Kr   0.05391407 0.36517069 0.35634196
Kr   0.03650677 0.96087408 0.64989698
Kr   0.95400238 0.66080052 0.20332548
Kr   0.94284868 0.73927313 0.00610653
Kr   0.37332255 0.02967922 0.32603002
Kr   0.47613305 0.68693346 0.94835192
Kr   0.95993233 0.91397882 0.53610945
Kr   0.80216306 0.40482637 0.94870514
Kr   0.04271631 0.40785757 0.22090936
Kr   1.00073576 0.02638317 0.50931430
Kr   0.81877577 0.83212185 0.29508537
Kr   0.77123308 0.32039437 0.82682467
Kr   0.05592996 0.84045029 0.12654503
Kr   0.97648615 0.80637139 0.72917897
Kr   0.40788698 0.89248085 0.15619482
Kr   0.55423778 0.38869923 0.01527369
Kr   0.78557974 0.95064747 0.99075931
Kr   0.76806951 0.70067686 0.17377870
Kr   0.86598003 0.83432901 0.08781637
Kr   0.05261919 0.04414361 0.49458504
Kr   0.55186880 0.14287816 0.52842849
Kr   0.61680400 0.15495880 0.32956150
Kr   0.10554738 0.31733373 0.84910244
Kr   0.52614772 0.46028545 0.94459975
Kr   0.70950556 0.34785166 0.99601239
Kr   0.76071221 0.15044144 0.29767510
Kr   0.19629194 0.14470276 0.97294003
Kr   0.30245733 0.67804593 0.87292528
Kr   0.12909064 0.65281051 0.00716598
Kr   0.94215715 0.42010006 0.28329900
Kr   0.13633020 0.12214538 0.37102708
Kr   0.86053562 0.99326074 0.55128020
Kr   0.47560328 0.03109182 0.54586524
Kr   0.96291941 0.00601825 0.53608006
Kr   0.10710712 0.42985579 0.80216306
Kr   0.46417010 0.85670984 0.66879046
Kr   0.74223077 0.05525309 0.33353442
Kr   0.97457331 0.37678048 0.63582987
Kr   0.25837258 0.48950851 0.13912596
Kr   0.85223663 0.22057092 0.64785171
Kr   0.03628605 0.37907591 0.71606833
Kr   0.81724548 0.42944378 0.46075633
Kr   0.03421130 0.55520892 0.20375220
Kr   0.96550912 0.34839612 0.27907592
Kr   0.81119782 0.74437904 0.44969100
Kr   0.78416717 0.11012360 0.95547378
Kr   0.19386405 0.91564161 0.60030901
Kr   0.31080046 0.93843442 0.65691584
Kr   0.17120366 0.37669218 0.36341965
Kr   0.95556211 0.22420542 0.62579459
Kr   0.62658918 0.79095054 0.90979993
Kr   0.15726899 0.64689523 0.21982048
Kr   0.62423486 0.05831372 0.54857266
Kr   0.58360797 0.65635669 0.08312242
Kr   0.46375811 0.01153620 0.49423194
Kr   0.06134491 0.46324310 0.82411712
Kr   0.61262506 0.98899353 0.67751616
Kr   0.97135079 0.96396410 0.61597997
Kr   0.38253385 0.56871694 0.15704827
Kr   0.98276931 0.97750145 0.90197176
Kr   0.24670395 0.09152442 0.08956739
Kr   0.12283695 0.38069454 0.43410832
Kr   0.86237490 0.85828429 0.02523543
Kr   0.57027662 0.07557387 0.19096527
Kr   0.44077399 0.89183348 0.76259565
Kr   0.65744555 0.20111831 0.39529136
Kr   0.03711007 0.09112713 0.23372573
Kr   0.97267509 0.57664800 0.76795173
Kr   0.99764574 0.70876986 0.69371688
Kr   0.32594171 0.34954384 0.07220424
Kr   0.86355209 0.05612125 0.32660389
Kr   0.11992348 0.17881107 0.92650092
Kr   0.95750439 0.27548558 0.19056799
Kr   0.42594174 0.00700412 0.04760153
Kr   0.93646258 0.68640375 0.66792232
Kr   0.51261038 0.89839613 0.64611536
Kr   0.73766923 0.46350795 0.10578281
Kr   0.02942908 0.12720719 0.20826958
Kr   0.42763391 0.27660391 0.97313130
Kr   0.01668628 0.54015595 0.61597997
Kr   0.91421425 0.43569750 0.91884935
Kr   0.58581519 0.10728370 0.34963214
Kr   0.37870806 0.13815480 0.98799288
Kr   0.72149795 0.10725427 0.98170990
Kr   0.27355796 0.98147434 0.26559740
Kr   0.11037375 0.19239259 0.59982342
Kr   0.77282226 0.14189228 0.62723660
Kr   0.53173929 0.15045616 0.69670397
Kr   0.28609478 0.32139492 0.82327843
Kr   0.48299003 0.96520013 0.76010889
Kr   0.74723369 0.20026486 0.44196585
Kr   0.21124192 0.14686580 0.71227193
Kr   0.18643320 0.12449972 0.10522366
Kr   0.17076221 0.08624191 0.00569453
Kr   0.85503238 0.57884049 0.58993524
Kr   0.92885524 0.22054149 0.21325780
Kr   0.44913185 0.18740436 0.06661271
Kr   0.39067098 0.00565038 0.69927895
Kr   0.82263094 0.19869041 0.49595353
Kr   0.22861977 0.83060628 0.49985287
Kr   0.46631843 0.10378164 0.74574751
Kr   0.18294585 0.39967629 0.61116832
Kr   0.68883169 0.95975572 0.40819600
Kr   0.47797236 0.95818126 0.21046205
Kr   0.95912302 0.63928783 0.91873163
Kr   0.12617716 0.37064448 0.68378460
Kr   0.06929076 0.48438787 0.08434373
Kr   0.52052677 0.10551795 0.78699237
Kr   0.30057389 0.59465861 0.05414950
Kr   0.84598297 0.10972631 0.64551204
Kr   0.86305183 0.68582994 0.81399351
Kr   0.93120956 0.22738376 0.42035019
Kr   0.83677167 0.21862860 0.12497057
Kr   0.97132140 0.24499705 0.33877283
Kr   0.03143025 0.67148322 0.33693349
Kr   0.79957330 0.63936138 0.85422307
Kr   0.25404650 0.68365216 0.86411124
Kr   0.29203945 0.83964097 0.05025015
Kr   0.04889641 0.70987344 0.21553855
Kr   0.86805475 0.23122425 0.73404950
Kr   0.50952029 0.30875516 0.09682166
Kr   0.89807242 0.84742498 0.90247208
Kr   0.39433491 0.30523837 0.20573868
Kr   0.37354326 0.16205120 0.37310183
Kr   0.79387873 0.99683642 0.12374926
Kr   0.89184815 0.40425250 0.45304590
Kr   0.53162158 0.64298117 0.86668634
Kr   0.16655385 0.15495880 0.68624192
Kr   0.72351384 0.96390527 0.48768395
Kr   0.13961154 0.00719541 0.39258388
Kr   0.73241615 0.21748087 0.13225427
Kr   0.87713361 0.48393175 0.28918481
Kr   0.92551500 0.77623600 0.49613008
Kr   0.83381402 0.02720718 0.28145969
Kr   0.09723367 0.57538259 0.16427310
Kr   0.39395234 0.02950265 0.74724841
Kr   0.63022369 0.10475279 0.15938787
Kr   0.11047675 0.50619483 0.33811066
Kr   0.11748087 0.05289876 0.28287229
Kr   0.10734256 0.67767805 0.36561212
Kr   0.87704533 0.40132430 0.71653914
Kr   0.68452030 0.98502064 0.56721604
Kr   0.45113304 0.95030904 0.53103298
Kr   0.58658034 0.29171574 0.02810477
Kr   0.57811952 0.05831372 0.72002649
Kr   0.54821956 0.04914656 0.38652149
Kr   0.07756033 0.97042376 0.57313126
Kr   0.18831666 0.73288697 0.78357857
Kr   0.57277811 0.85887289 0.04359918
Kr   0.85590053 0.68681574 0.25347263
Kr   0.81205124 0.53550619 0.21805474
Kr   0.89196587 0.89215720 0.81046200
Kr   0.13441731 0.03869924 0.15288405
Kr   0.24924955 0.28505003 0.79664510
Kr   0.78444678 0.03422602 0.53212184
Kr   0.17039435 0.15129487 0.19336374
Kr   0.04096527 0.30597413 0.75153035
Kr   0.08098882 0.89133316 0.90223664
Kr   0.69864625 0.34657151 0.09195115
Kr   0.75584167 0.86727488 0.89393759
Kr   0.43911123 0.88613892 0.70472342
Kr   0.92007065 0.65754855 0.75709242
Kr   0.17937021 0.75507653 0.73440260
Kr   0.91600943 0.95091230 0.67854619
Kr   0.35784286 0.21303707 0.00032372
Kr   0.11570041 0.19028841 0.05697469
Kr   0.24208358 0.04896998 0.42567688
Kr   0.60238373 0.94199526 0.35900530
Kr   0.36840791 0.98766923 0.28917012
Kr   0.93035614 0.13412301 0.37676573
Kr   0.84696883 0.10441437 0.41396409
Kr   0.87988526 0.51134491 0.71465570
Kr   0.36422896 0.97906125 0.34014127
Kr   0.95048559 0.05653325 0.01714244
Kr   0.12892878 0.76814300 0.15160389
Kr   0.67551506 0.03403473 0.59092116
Kr   0.98700714 0.63494706 0.76678932
Kr   0.10545909 0.67438203 0.73733079
Kr   0.41570041 0.18733078 0.74780750
Kr   0.01862861 0.01153620 0.55223662
Kr   0.65251619 0.41904062 0.08218069
Kr   0.01914361 0.86777514 0.69696885
Kr   0.53557974 0.28017953 0.00447322
Kr   0.94708651 0.63076812 0.65565038
Kr   0.53784579 0.27654505 0.10139788
Kr   0.76968807 0.49158332 0.07008535
Kr   0.23597705 0.90984404 0.94869041
Kr   0.97108597 0.89089167 0.77165985
Kr   0.45582697 0.89795470 0.52311653
Kr   0.83182752 0.74486458 0.34799883
Kr   0.09966157 0.34627724 0.12732489
Kr   0.51652443 0.44468805 0.09693938
Kr   0.85853446 0.14301060 0.74501181
Kr   0.74359918 0.08506475 0.29371691
Kr   0.18634491 0.71116835 0.11826074
Kr   0.87363160 0.09005297 0.47954679
Kr   0.47254264 0.12753090 0.69526196
Kr   0.94680697 0.84409952 0.82469100
Kr   0.71396410 0.02407298 0.67461741
Kr   0.05594467 0.07857563 0.58072394
Kr   0.02161566 0.66197765 0.63515306
Kr   0.95176572 0.71346378 0.76118302
Kr   0.91808420 0.32011476 0.26692170
Kr   0.05737198 0.85522366 0.66998237
Kr   0.00382578 0.78909653 0.51316953
Kr   0.13856681 0.27064449 0.37994409
Kr   0.60375220 0.76924664 0.19855799
Kr   0.36812830 0.67844319 0.92392588
Kr   0.45567983 0.13790464 0.44186285
Kr   0.23914069 0.50609183 0.00185403
Kr   0.67888469 0.35684225 0.91701001
Kr   0.19346674 0.59774870 0.52795762
Kr   0.88894939 0.19093585 0.93332845
Kr   0.19211301 0.86874634 0.73947912
Kr   0.29764569 0.25213361 0.96035904
Kr   0.99356979 0.13705121 0.18243083
Kr   0.69014126 0.04657151 0.11005003
Kr   0.42045319 0.11702472 0.94258386
Kr   0.14768982 0.20080930 0.27341083
Kr   0.89667451 0.42466158 0.79799879
Kr   0.10487051 0.49011183 0.04133314
Kr   0.71427310 0.14998528 0.18560919
Kr   0.32327840 0.84743965 0.10563567
Kr   0.82483816 0.40763685 0.89365804
Kr   0.00946145 0.02663331 0.01113891
Kr   0.49215713 0.87430841 0.46517071
Kr   0.56787813 0.54495293 0.09103885
Kr   0.83260745 0.17554444 0.36723074
Kr   0.49162742 0.62770748 0.97363156
Kr   0.55644500 0.72558862 0.80300176
Kr   0.20282520 0.06683343 0.65903473
Kr   0.34969100 0.71528840 0.04448205
Kr   0.20182461 0.04545321 0.99454087
Kr   0.32444084 0.19150972 0.34451148
Kr   0.33368158 0.97701591 0.85400236
Kr   0.30857858 0.91855502 0.39782223
Kr   0.42756033 0.96562684 0.99624783
Kr   0.15341377 0.25628310 0.71174222
Kr   0.54670393 0.46568573 0.00896115
Kr   0.10382579 0.66158032 0.91851091
Kr   0.18864037 0.60685700 0.07644203
Kr   0.96627426 0.46798119 0.66546494
Kr   0.88812536 0.21806945 0.07211595
Kr   0.67168921 0.50729847 0.84941143
Kr   0.77513248 0.94646847 0.93993527
Kr   0.70245731 0.94348150 0.25420836
Kr   0.88384348 0.98668337 0.78841966
Kr   0.86135960 0.78737491 0.38528547
Kr   0.11756916 0.73603588 0.92110068
Kr   0.25161859 0.16396409 0.89358449
Kr   0.05628311 0.85197181 0.34190699
Kr   0.04065627 0.33066511 0.37929666
Kr   0.68119478 0.84484994 0.46465567
Kr   0.95678347 0.20014715 0.44248086
Kr   0.63535905 0.20665097 0.86499411
Kr   0.28559446 0.26873162 0.14976458
Kr   0.09764568 0.84161270 0.31236023
Kr   0.81055033 0.40470865 0.58668333
Kr   0.15419364 0.90963805 0.38840494
Kr   0.08852266 0.05157446 0.13178341
Kr   0.59047973 0.10247204 0.78562391
Kr   0.92011476 0.36739260 0.35592994
Kr   0.72920835 0.90996176 0.12841378
Kr   0.20663626 0.96032959 0.17117423
Kr   0.00934373 0.93924367 0.44373161
Kr   0.94217187 0.98917007 0.35835788
Kr   0.11581813 0.91178638 0.69967628
Kr   0.89017069 0.48602119 0.86599469
Kr   0.31776044 0.01364038 0.36078575
Kr   0.04239259 0.73432899 0.62663329
Kr   0.61846673 0.45598882 0.17494114
Kr   0.13559447 0.23700707 0.95195705
Kr   0.82345504 0.54955858 0.66830486
Kr   0.83218068 0.48194525 0.13878752
Kr   0.17076221 0.33326957 0.07207181
Kr   0.19345203 0.00235433 0.60001475
Kr   0.16119777 0.40454680 0.84874928
Kr   0.06355209 0.80281043 0.45085344
Kr   0.72235137 0.89897001 0.70729846
Kr   0.87892878 0.05759270 0.80701888
Kr   0.92283696 0.45048559 0.11939377
Kr   0.12361684 0.07997351 0.82557386
Kr   0.85147148 0.16918775 0.13716891
Kr   0.34018540 0.72355801 0.97010010
Kr   0.88351971 0.22985581 0.41180107
Kr   0.14312832 0.27530900 0.08633020
Kr   0.40238377 0.03447616 0.60004413
Kr   0.99668926 0.22869335 0.80994701
Kr   0.14177458 0.08766922 0.33390230
Kr   0.89974988 0.33062094 0.31411123
Kr   0.68552095 0.29293704 0.08793408
Kr   0.38502061 0.75119185 0.06418481
Kr   0.63275456 0.13912596 0.80154502
Kr   0.87539732 0.92045325 0.76718658
Kr   0.85960859 0.82600057 0.92635375
Kr   0.94358444 0.52813417 -.00300177
Kr   0.49121541 0.68506473 0.01698058
Kr   0.42073280 0.01094762 0.43374044
Kr   0.58175397 0.51027077 0.15673926
Kr   0.92379338 0.01290465 0.22859035
Kr   0.19761625 0.99183345 0.96421427
Kr   0.37648618 0.88909656 0.73733079
Kr   0.32722190 0.08053267 0.71801060
Kr   0.60235435 0.89205414 0.62266040
Kr   0.91606832 0.81015301 0.93306357
Kr   0.22878164 0.76898175 0.05810771
Kr   0.49327543 0.04776339 0.66436142
Kr   0.05153031 0.17729546 0.33265156
Kr   0.27129194 0.95489991 0.75941730
Kr   0.88961154 0.32876694 0.72432309
Kr   0.11817246 0.78028250 0.62320483
Kr   0.53309298 0.24917600 0.05629782
Kr   0.52494115 0.64717478 0.13432902
Kr   0.99960268 0.09788111 0.77585346
Kr   0.37369040 0.86002058 0.80794585
Kr   0.30004415 0.65170693 0.06692172
Kr   0.37060037 0.05025015 0.84077400
Kr   0.79676276 0.28587404 0.54723364
Kr   0.82220423 0.88683051 0.52354330
Kr   0.70578283 0.04779282 0.43203357
Kr   0.71108007 0.92823720 0.80397296
Kr   0.38322544 0.07157151 0.72519130
Kr   0.12030606 0.42916423 0.02900235
Kr   0.30963802 0.86693645 0.23404944
Kr   0.97588289 0.19117127 0.77363157
Kr   0.77163035 0.85965276 0.68797827
Kr   0.17099765 0.88276929 0.24150972
Kr   0.62188053 0.26091820 0.91035903
Kr   0.59499705 0.08238670 0.51188934
Kr   0.88525605 0.18125367 0.28468218
Kr   0.82268983 0.90821069 0.01240436
Kr   0.32380813 0.85085344 0.34845498
Kr   0.37525016 0.12583873 0.39660093
Kr   0.02432313 0.04998529 0.76055032
Kr   0.20862272 0.60673928 0.82882577
Kr   0.40441436 0.50688642 0.85189819
Kr   0.77505887 0.98160684 0.40890229
Kr   0.94123012 0.69658625 0.39830783
Kr   0.37235138 0.04748381 0.02657446
Kr   0.41771632 0.87891406 0.30634198
Kr   0.33020896 0.12339611 0.88187170
Kr   0.77539730 0.42354327 0.11022661
Kr   0.90088284 0.93179816 0.05307534
Kr   0.39278987 0.92629486 0.00447322
Kr   0.36728960 0.00938788 0.00142731
Kr   0.95781344 0.37735432 0.32127723
Kr   0.55045617 0.34557092 0.12473515
Kr   0.46701002 0.12252796 0.25834313
Kr   0.35541496 0.10928488 0.63912600
Kr   0.76131546 0.87664801 0.94546789
Kr   0.83908182 0.50372279 0.09483520
Kr   0.94704241 0.35862273 0.67851675
Kr   0.08251913 0.72532374 0.38409361
Kr   0.91397882 0.33078280 0.80023545
Kr   0.56238967 0.96593583 0.74592412
Kr   0.87697172 0.77757508 0.59782225
Kr   0.18624191 0.00800471 0.22461744
Kr   0.36019719 0.37538257 0.78791940
Kr   0.51932019 0.09437905 0.42892879
Kr   0.98793405 0.37333727 0.73017955
Kr   0.36855504 0.93917012 0.68721306
Kr   0.20438494 0.82610357 0.12792820
Kr   0.04970571 0.13812537 0.78658038
Kr   0.09145086 0.33402002 0.37489700
Kr   0.70594472 0.01387581 0.72476459
Kr   0.54287821 0.17889935 0.77872282
Kr   0.95984405 0.08312242 0.87115949
Kr   0.91811359 0.20384049 0.26522955
Kr   0.57633901 0.11035904 0.12383756
Kr   0.46128607 0.41378754 0.12339611
Kr   0.63253385 0.75266337 0.86564153
Kr   0.79214245 0.99795467 0.31915835
Kr   0.98575628 0.06771631 0.90906417
Kr   0.17713360 0.38990581 0.73091525
Kr   0.81968808 0.46205118 0.97950268
Kr   0.80603296 0.21673043 0.05541495
Kr   0.76668632 0.99679220 0.54952914
Kr   0.38293114 0.85507655 0.70878458
Kr   0.52416128 0.06347852 0.18840495
Kr   0.58572692 0.14543849 0.61055034
Kr   0.55210418 0.63235724 0.99387872
Kr   0.98047388 0.92816365 0.37037963
Kr   0.98616832 0.31212479 0.20378163
Kr   0.55866683 0.75470865 0.93159211
Kr   0.46845204 0.72678041 0.90821069
Kr   0.01640671 0.93549150 0.31522956
Kr   0.04587993 0.10075045 0.01678929
Kr   0.53026778 0.76815772 0.80033845
Kr   0.53631550 0.78942025 0.00750441
Kr   0.95253092 0.33984697 0.72679520
Kr   0.17611830 0.15632725 0.83841968
Kr   0.67722189 0.06786345 0.36652443
Kr   0.07001177 0.20133902 0.56508243
Kr   0.69718951 0.36412597 0.04546792
Kr   0.70269281 0.92090935 0.46698058
Kr   0.24098000 0.41490585 0.02959093
Kr   0.30328134 0.86268389 0.78612417
Kr   0.88671279 0.94754261 0.12510300
Kr   0.83702177 0.05623896 0.16923191
Kr   0.92477930 0.39312831 0.91022664
Kr   0.15791643 0.20216304 0.96081513
Kr   0.88173926 0.81650972 0.03877281
Kr   0.30974102 0.81234550 0.17342556
Kr   0.55691582 0.95364916 0.69576222
Kr   0.06383166 0.58103293 0.07591230
Kr   0.46595058 0.66698056 0.98800761
Kr   0.32040906 0.07917893 0.53510892
Kr   0.86987936 0.82423484 0.74418777
Kr   0.85339910 0.22748676 0.90623897
Kr   0.41406709 0.87305766 0.23231313
Kr   0.90963805 0.58925843 0.43372571
Kr   0.67861980 0.10182460 0.12679517
Kr   0.80741614 0.16846675 0.04070041
Kr   0.47099763 0.62311655 0.85083878
Kr   0.17969394 0.32105651 0.68616831
Kr   0.85501766 0.93509418 0.53690404
Kr   0.25294292 0.06336080 -.00213361
Kr   0.94292235 0.03028252 0.30481166
Kr   0.95709240 0.01433196 0.89239258
Kr   0.78666866 0.01243379 0.49483523
Kr   0.08203354 0.28238669 0.29565921
Kr   0.52519131 0.94585049 0.28257799
Kr   0.76153624 0.04520306 0.65132433
Kr   0.29175985 0.15707770 0.12891406
Kr   0.89871985 0.95871103 0.73197466
Kr   0.95972633 0.18577105 0.35251620
Kr   0.77773690 0.47508827 0.82763386
Kr   0.28522661 0.88894939 0.29774868
Kr   0.54072988 0.88808125 0.90432608
Kr   0.15278105 0.62854618 0.53638905
Kr   0.08391701 0.09143614 0.70868158
Kr   0.78967041 0.73406416 0.68228370
Kr   0.23502061 0.69484991 0.09220129
Kr   0.06734844 0.52251321 0.50472337
Kr   0.73126841 0.88765454 0.23831664
Kr   0.06275750 0.41421425 0.03599176
Kr   0.02480871 0.19877869 0.83780164
Kr   0.05703355 0.77501470 0.99262804
Kr   0.77295464 0.63054740 0.89889646
Kr   0.15341377 0.20812243 0.90416420
Kr   0.54507065 0.91967332 0.24861683
Kr   0.43527076 0.06555326 0.71976167
Kr   0.29964685 0.67698646 0.11631843
Kr   0.36343437 0.22542672 0.60261917
Kr   0.71648031 0.00332549 0.18090053
Kr   0.03750736 0.10013243 0.30682755
Kr   0.87160099 0.15320776 0.08169512
Kr   0.89131844 0.51598001 0.40670982
Kr   0.96149212 0.49836668 0.18577105
Kr   0.81929076 0.26183051 0.08487346
Kr   0.11171278 0.65103000 0.17527957
Kr   0.80618006 0.31556797 0.12769277
Kr   0.92767805 0.20378163 0.07685404
Kr   0.79201001 0.69047970 0.86122721
Kr   0.57048267 0.01890818 0.76571512
Kr   0.26893762 0.83749264 0.83240139
Kr   0.83063567 0.39817539 0.69267219
Kr   0.17941436 0.20810771 0.13418189
Kr   0.14654207 0.54003829 0.95763689
Kr   0.00407593 0.65825486 0.90464979
Kr   0.23850794 0.51153618 0.89635080
Kr   0.10306063 0.99281931 0.61602414
Kr   0.78219545 0.99567395 0.64770454
Kr   0.02573573 0.31500885 0.56130075
Kr   0.76849622 0.21630371 0.39727783
Kr   0.55228078 0.90609181 0.53047377
Kr   0.53198940 0.20054443 0.03819894
Kr   0.75896114 0.18410830 0.03143025
Kr   0.74196589 0.01374338 0.46890819
Kr   0.00668040 0.82052678 0.81475866
Kr   0.66171283 0.64816070 0.93079752
Kr   0.39205414 0.78250444 0.95975572
Kr   0.25407594 0.91122717 0.06980577
Kr   0.23814009 0.11724544 0.17864920
Kr   0.07227781 0.37071809 0.68421131
Kr   0.96908480 0.49424663 0.80868161
Kr   0.14426133 0.41291937 0.68708062
Kr   0.71330196 0.05267804 0.86050618
Kr   0.00506180 0.65300173 0.72389638
Kr   0.67630965 0.16442025 0.78090054
Kr   0.53288698 0.99125952 0.78582990
Kr   0.13368158 0.46998236 0.77218956
Kr   0.81643617 0.76634789 0.85762215
Kr   0.09695409 0.40584168 0.47879636
Kr   0.77951741 0.94457036 0.31241909
Kr   0.04165686 0.65032369 0.28191584
Kr   0.16147734 0.43432903 0.30753383
Kr   0.07994409 0.10631254 0.79839611
Kr   0.82889938 0.59053856 0.21617128
Kr   0.77514714 0.73866981 0.04264273
Kr   0.76677459 0.95178044 0.56993824
Kr   0.00217775 0.18276927 0.98593289
Kr   0.83066511 0.43268099 0.11958505
Kr   0.88853735 0.64504123 0.20017658
Kr   0.43019423 0.94714534 0.85492939
Kr   0.97707474 0.07232195 0.60644495
Kr   0.97138023 0.57285166 0.10476751
Kr   0.02260153 0.34586522 0.94999993
Kr   0.03293113 0.10470866 0.49885228
Kr   0.55073577 0.59894055 0.89515889
Kr   0.88949382 0.69660091 0.48843437
Kr   0.96611238 0.96892291 0.44879341
Kr   0.85781342 0.29217190 0.12429370
Kr   0.80189818 0.04994114 0.33864039
Kr   0.71040320 0.93889052 0.66823131
Kr   0.48318133 -.00026486 0.92096823
Kr   0.29359916 0.16671571 0.00707769
Kr   0.81695116 0.13463801 0.27770746
Kr   0.22888465 0.64039141 0.94429082
Kr   0.33725721 0.14271630 0.22545615
Kr   0.14031784 0.66624486 0.64710128
Kr   0.84980869 0.03672749 0.52217484
Kr   0.02747204 0.42296940 0.84264272
Kr   0.94640970 0.03332843 0.37998822
Kr   0.58048856 0.53092998 0.04137728
Kr   0.68684524 0.60587108 0.93844908
Kr   0.15133902 0.22211596 0.44671866
Kr   0.98013538 0.01286051 0.41418484
Kr   0.64437908 0.90821069 0.55796057
Kr   0.13266627 0.48588875 0.57046795
Kr   0.91942322 0.53410828 0.46745145
Kr   0.00994703 0.17152737 0.48332843
Kr   0.30067688 0.09233373 0.36957031
Kr   0.22892877 0.65160388 0.79227483
Kr   0.93054742 0.61951149 0.18257798
Kr   0.79682165 0.78012067 0.17002650
Kr   0.89145088 0.57391113 0.99018538
Kr   0.08588876 0.14061213 0.83360803
Kr   0.41639200 0.82045323 0.22466156
Kr   0.18621248 0.15750442 0.50200123
Kr   0.00882872 0.38026783 0.87770748
Kr   0.86305183 0.16574456 0.32057092
Kr   0.86921716 0.51764274 0.90220720
Kr   0.95776922 0.34455562 0.06468511
Kr   0.81446445 0.91294879 0.33995000
Kr   0.10113303 0.52850205 0.10881401
Kr   0.58288699 0.93185699 0.98393166
Kr   0.92831081 0.16262507 0.24782224
Kr   0.87466162 0.47071809 0.54574752
Kr   0.99570334 0.12396999 0.06927605
Kr   0.73890525 0.02476457 0.76839322
Kr   0.51989406 0.28428486 0.79640967
Kr   0.07547087 0.11199235 0.98031199
Kr   0.04816068 0.34097999 0.16948205
Kr   0.72036493 0.17917894 0.10851972
Kr   0.94380516 0.87039435 0.02713361
Kr   0.46228665 0.07585344 0.49178931
Kr   0.86711305 0.63057679 0.89045024
Kr   0.98204821 0.46711302 0.14749853
Kr   0.98153329 0.12758975 0.61831963
Kr   0.51387584 0.39127427 0.92526489
Kr   0.10741613 0.86814302 0.69067097
Kr   0.59451151 0.11261036 0.47430843
Kr   0.16623014 0.07731019 0.23241614
Kr   0.11228664 0.54121542 0.05765156
Kr   0.48936141 0.44346675 0.15060329
Kr   0.17786933 0.28421131 0.15385522
Kr   0.24935254 0.92048264 0.15684226
Kr   0.60052973 0.62742788 0.00428193
Kr   0.31263977 0.99411416 0.74857271
Kr   0.68440259 0.18188640 0.52601534
Kr   0.68425542 0.95618016 0.69960266
Kr   0.12741320 0.58556503 0.52794296
Kr   0.08593290 0.30878460 0.52750146
Kr   0.77435255 0.17817834 0.74941140
Kr   0.92910534 0.18946441 0.55847555
Kr   0.01843732 0.90058857 0.27633902
Kr   0.53738964 0.56902593 0.82261622
Kr   0.71096236 0.94192171 0.08218069
Kr   0.87302828 0.26078576 0.52230722
Kr   0.93724251 0.20540023 0.87226307
Kr   0.52392584 0.00551795 0.36268395
Kr   0.78736019 0.84243673 0.25261918
Kr   0.44645381 0.17007063 -.00147145
Kr   0.90728372 0.60547382 0.10563567
Kr   0.94055325 0.38035610 0.15775456
Kr   0.33516774 0.79686582 0.03889052
Kr   0.31645086 0.70144200 0.07115950
Kr   0.33312243 0.90429670 0.70176578
Kr   0.29645380 0.01022660 0.68135667
Kr   0.99599773 0.72296941 0.73834610
Kr   0.63934672 0.97472036 0.59311360
Kr   0.45513538 0.21191879 0.55331081
Kr   0.60217774 0.03444673 0.67352855
Kr   0.96568567 0.94764566 0.73886114
Kr   0.41546500 0.07963508 0.37510303
Kr   0.64741027 0.16374338 0.89842552
Kr   0.65067691 0.04223072 0.14046498
Kr   0.14836669 0.96552378 0.10909358
Kr   0.25075045 0.06394938 0.53076810
Kr   0.05924073 0.57295465 0.61200708
Kr   0.93201888 0.84486461 0.36353737
Kr   0.01434668 0.70762211 0.87695706
Kr   0.57004124 0.57457328 0.93518245
Kr   0.88503534 0.01995291 0.48906711
Kr   0.53862566 0.69087696 0.06177163
Kr   0.05695998 0.66590643 0.46795174
Kr   0.01899647 0.85999119 0.85110360
Kr   0.30798998 0.73865509 0.17472042
Kr   0.84557092 0.05307534 0.46293408
Kr   0.95256037 0.74660093 0.91946733
Kr   0.49145085 0.08510888 0.51998234
Kr   0.94799888 0.17345497 0.10788699
Kr   0.80793118 0.83756626 0.40818128
Kr   0.96430248 0.29498234 0.60467923
Kr   0.36188936 0.07205709 0.90744555
Kr   0.57486761 0.82878166 0.24655680
Kr   0.15366392 0.68374044 0.54134786
Kr   0.82903177 0.48528546 0.80607706
Kr   0.11892290 0.43790466 0.45710713
Kr   0.91495001 0.31230137 0.75790173
Kr   0.18946441 0.92457330 0.26530313
Kr   0.14617422 0.54059738 0.10311949
Kr   0.83066511 0.79798412 0.41752502
Kr   0.81859916 0.64973509 0.40957916
Kr   0.68818426 0.18943496 0.45470867
Kr   0.51715714 0.98400533 0.67882580
Kr   0.14461449 0.58688933 0.05320777
Kr   0.24873455 0.37145379 0.99140674
Kr   0.69885224 0.93365216 0.52080637
Kr   0.97065926 0.19599764 0.68634492
Kr   0.95345789 0.83702177 0.69679224
Kr   0.63159209 0.54964685 0.04768982
Kr   0.00656268 0.34108299 0.89640963
Kr   0.00785756 0.06150677 0.31780457
Kr   0.51278692 0.73565334 0.02163037
Kr   0.22872278 0.91443497 0.70748973
Kr   0.19793996 0.16809888 0.11434668
Kr   0.58472627 0.93407887 0.53399062
Kr   0.81450856 0.38156268 0.26452324
Kr   0.59524721 0.16102119 0.99367273
Kr   0.54228961 0.05874044 0.76487637
Kr   0.43067980 0.07686875 0.55307537
Kr   0.07014421 0.60915244 0.14857270
Kr   0.78176874 0.87741321 0.38737494
Kr   0.96909946 0.49682167 0.11324309
Kr   0.60796058 0.24386404 0.19414362
Kr   0.03905239 0.54592413 0.16108005
Kr   0.08788994 0.97657442 0.66213953
Kr   0.95258975 0.17140965 0.61895233
Kr   0.69227487 0.18909653 0.91160977
Kr   0.05289876 0.23753679 0.18816951
Kr   0.41917303 0.86550915 0.51856977
Kr   0.67341083 0.13649206 0.17666274
Kr   0.86805475 0.86256623 0.13972926
Kr   0.86946738 0.41986462 0.19944085
Kr   0.87622130 0.22950265 0.94773394
Kr   0.75972635 0.54340792 0.03980282
Kr   0.29123014 0.48153323 0.78203356
Kr   0.05918187 0.56792229 0.71699530
Kr   0.82189524 0.91876101 0.93924367
Kr   0.07789877 0.77183634 0.39838138
Kr   0.64749855 0.43271041 0.87903178
Kr   0.74757212 0.91256624 0.18160683
Kr   0.52892876 0.03112125 0.08471160
Kr   0.02151266 0.00919659 0.19283402
Kr   0.23909654 0.39911714 0.07115950
Kr   0.93488818 0.31715718 0.18147440
Kr   0.68939084 0.22525014 0.72597122
Kr   0.65548855 0.78862572 0.04924956
Kr   0.03335786 0.96534735 0.71286052
Kr   0.03076810 0.63056213 0.94813120
Kr   0.86263978 0.80693054 0.12461742
Kr   0.64215714 0.73196000 0.02725132
Kr   0.06368452 0.42189524 0.79789579
Kr   0.57048267 0.13368158 0.85949087
Kr   0.78107715 0.44348148 0.16319893
Kr   0.35968217 0.05022072 0.58374047
Kr   0.41577399 0.11865804 0.69261330
Kr   0.94327551 0.04957328 0.71528840
Kr   0.77850211 0.81412596 0.93553561
Kr   0.46007946 0.31790760 0.88449091
Kr   0.19171572 0.72210127 0.83253384
Kr   0.18050325 0.86088878 0.42557389
Kr   0.01213949 0.22205709 0.56163919
Kr   0.50231022 0.90283990 0.76118302
Kr   0.90869629 0.26923192 0.09284873
Kr   0.69576222 0.81571513 0.95366389
Kr   0.97766334 0.74891114 0.27539730
Kr   0.16187464 0.08806651 0.61487639
Kr   0.91196293 0.15495880 0.58042967
Kr   0.48943499 0.75189817 0.10462037
Kr   0.91322839 0.25946143 0.37093878
Kr   0.83927310 0.99599773 0.64087701
Kr   0.27629489 0.19844027 0.36678928
Kr   0.03057681 0.54763097 0.75500298
Kr   0.95996171 0.08388758 0.28482932
Kr   0.84240729 0.93927312 0.59512949
Kr   0.87785465 0.60195702 0.84034729
Kr   0.79639494 0.86475873 0.60913771
Kr   0.86874634 0.33194527 0.85130960
Kr   0.91709828 0.39902884 0.66322839
Kr   0.86561215 0.13088582 0.91069746
Kr   0.02914950 0.52230722 0.65682757
Kr   0.24745438 0.83766925 0.05382578
Kr   0.40235433 0.02704532 0.37108594
Kr   0.01521483 0.51837844 0.19632137
Kr   0.83240139 0.23246028 0.85687172
Kr   0.21971749 0.98170990 0.70267808
Kr   0.10204532 0.36586228 0.79068571
Kr   0.39877871 0.91246325 0.06308123
Kr   0.82313126 0.78399056 0.12061507
Kr   0.64985287 0.14590937 0.22292525
Kr   0.54074454 0.48312244 0.89755744
Kr   0.95729840 0.34999999 0.38524133
Kr   0.12073278 0.65903473 0.59407008
Kr   0.78291643 0.27935553 0.79763097
Kr   0.39869040 0.83265162 0.87036496
Kr   0.93968511 0.94877863 0.80462039
Kr   0.05810771 0.85175103 0.23432902
Kr   0.87629491 0.80472338 0.34037670
Kr   0.92023253 0.49290761 0.81409651
Kr   0.09770453 0.26221305 0.87839907
Kr   0.39321661 0.68778694 0.83644795
Kr   0.81341964 0.64923489 0.92488229
Kr   0.98372567 0.26934963 0.51369923
Kr   0.89589465 0.72369039 0.14773396
Kr   0.55317837 0.10807828 0.73841965
Kr   0.91539139 0.13693349 0.46854031
Kr   0.38624191 0.57505888 0.10888758
Kr   0.21702471 0.09262802 0.62920839
Kr   0.81100649 0.88338727 0.12982637
Kr   0.44605649 0.74791056 0.07388169
Kr   0.94564450 0.42229253 0.54292232
Kr   0.76339024 0.87335199 0.11221307
Kr   0.58497649 0.02617716 0.26724544
Kr   0.27173337 0.06637728 0.95937312
Kr   0.30851972 0.13319600 0.26231608
Kr   0.37366098 0.58683050 0.85450262
Kr   0.00248676 0.50279576 0.99514419
Kr   0.83129781 0.70610654 0.90916717
Kr   0.15554738 0.50669515 0.89256918
Kr   0.05148617 0.53755152 0.85007358
Kr   0.04187758 0.15450265 0.09780753
Kr   0.49542376 0.82276338 0.12608889
Kr   0.37392586 0.68231314 0.00592996
Kr   0.84136260 0.34763098 0.11520012
Kr   0.90779871 0.63862568 0.70133901
Kr   0.86244851 0.66836375 0.90890235
Kr   0.71964395 0.69490880 0.08081225
Kr   0.54704237 0.08786051 0.05504709
Kr   0.97360212 0.99877870 0.68590343
Kr   0.72769272 0.20915245 0.01528841
Kr   0.65310472 0.00990288 0.00154503
Kr   0.21453796 0.46867275 0.05250147
Kr   0.90503240 0.98148918 0.64228964
Kr   0.36177164 0.02589759 0.88596231
Kr   0.41643617 0.60501766 0.80366391
Kr   0.12463214 0.54284871 0.86792231
Kr   0.17023249 0.59907299 0.26462623
Kr   0.69920546 0.05425250 0.90166277
Kr   0.67866397 0.18853737 0.63518244
Kr   0.92466158 0.59402591 0.86287522
Kr   0.25384048 0.05931431 0.36993822
Kr   0.85974103 0.98240143 0.15734255
Kr   0.78943497 0.96805477 0.20030901
Kr   0.19520307 0.96269870 0.22327840
Kr   0.86751032 0.92667747 0.45513538
Kr   0.81162453 0.59813124 0.10467922
Kr   0.15928487 0.31712773 0.94330496
Kr   0.71667159 0.10751913 0.68338728
Kr   0.11096233 0.18918481 0.30794585
Kr   0.63349026 0.23365214 0.11393467
Kr   0.40317833 0.63993531 0.03075338
Kr   0.06617128 0.38662449 0.12438199
Kr   0.83453500 0.96133024 0.42455858
Kr   0.35600355 0.50176573 0.95042676
Kr   0.44039142 0.80356091 0.05676869
Kr   0.63376987 0.86559743 0.22716303
Kr   0.66662747 0.14414361 0.06163920
Kr   0.39009711 0.03521189 0.27916422
Kr   0.66643614 0.89323127 0.14870512
Kr   0.30104473 0.74349618 0.92919362
Kr   0.18129782 0.84309888 0.90432608
Kr   0.00977045 0.47664806 0.63035613
Kr   0.12489700 0.31294879 0.88940555
Kr   0.09090642 0.82511771 0.69434965
Kr   0.95850497 0.42199826 0.68537372
Kr   0.92758977 0.51861387 0.05413479
Kr   0.92511773 0.10045616 0.55214828
Kr   0.05414950 0.58652151 0.67105651
Kr   0.05606239 0.41543555 0.68912596
Kr   0.61422896 0.14031784 0.27816361
Kr   0.12007063 0.55685699 0.00295762
Kr   0.91999704 0.19658622 0.63989109
Kr   0.80401707 0.74071515 0.20164804
Kr   0.12613301 0.73203355 0.13503532
Kr   0.04826368 0.16549441 0.15386993
Kr   0.12554443 0.49692467 0.08956739
Kr   0.42567688 0.12750147 0.83839023
Kr   0.94198054 0.63677168 0.54999995
Kr   0.65916717 0.66433197 0.98774278
Kr   0.05344320 0.33796352 0.44217187
Kr   0.05618011 0.72989994 0.25276634
Kr   0.66389054 0.86378753 0.39273104
Kr   0.81105059 0.42873749 0.07190995
Kr   0.51084459 0.09351089 0.87851673
Kr   0.07750148 0.37483814 0.59988230
Kr   0.98805183 0.94879347 0.77994412
Kr   0.35865217 0.06472926 0.66188931
Kr   0.48841968 0.02277810 0.06600942
Kr   0.44142145 0.99760151 0.79465866
Kr   0.64131844 0.97738373 0.50304592
Kr   0.89423192 0.47039437 0.17536786
Kr   0.52033550 0.00849029 0.20878458
Kr   0.43328428 0.99365801 0.53315187
Kr   0.91696590 0.64077401 0.47872278
Kr   0.63215125 0.94816065 0.94999993
Kr   0.99368745 0.61128604 0.81940848
Kr   0.42576516 0.86637729 0.11433196
Kr   0.62238085 0.91801059 1.00270748
Kr   0.36639199 0.11625957 0.70122129
Kr   0.14704238 0.02951736 0.92488229
Kr   0.38477045 0.16230135 0.83868456
Kr   0.44504121 0.17778105 0.42061505
Kr   0.97516191 0.03084167 0.83762509
Kr   0.97635370 0.69952917 0.27932608
Kr   0.79779279 0.82111537 0.35981458
Kr   0.83378458 0.18864037 0.18381400
Kr   0.54845494 0.33037081 0.17901708
Kr   0.72572100 0.66255152 0.91475868
Kr   0.99558568 0.01027075 0.33696291
Kr   0.78306359 0.61169803 0.01746616
Kr   0.79935259 0.84860218 0.02704532
Kr   0.77754563 0.62500000 0.14654207
Kr   0.17666274 0.36180106 0.41394940
Kr   0.87773693 0.13752207 0.96081513
Kr   0.85114777 0.61046201 0.13429959
Kr   0.87058568 0.09820482 0.35703355
Kr   0.10666569 0.53928787 0.91160977
Kr   0.56824601 0.99354041 0.66471452
Kr   0.00108888 0.99212778 0.64927900
Kr   0.72700119 0.09296645 0.73415250
Kr   0.15472338 0.26361096 0.66840786
Kr   0.56608301 0.75488520 0.04011183
Kr   0.94233376 0.88880223 0.12995879
Kr   0.81166863 0.11642143 0.45974103
Kr   0.90756333 0.66480285 0.65008831
Kr   0.91817242 0.89629191 0.28588876
Kr   0.24228957 0.88098884 0.55266333
Kr   0.26768687 0.96889347 0.48721308
Kr   0.83391702 0.66761327 0.86024135
Kr   0.14334902 0.00569453 0.65013242
Kr   0.60101533 0.01202178 0.03703649
Kr   0.86496472 0.08844909 0.52994406
Kr   0.87647146 0.75261921 0.27304298
Kr   0.01533255 0.50729847 0.10704827
Kr   0.96871692 0.25949088 0.00314891
Kr   0.84412891 0.02344026 0.93608010
Kr   0.13326958 0.84343731 0.90060335
Kr   0.04199529 0.19923484 0.52361685
Kr   0.64183342 0.64373165 0.87305766
Kr   0.26190406 0.03581519 0.17861977
Kr   0.93859625 0.16465567 0.80373752
Kr   0.81060922 0.86331671 0.71889347
Kr   0.05253090 0.25326663 0.72739846
Kr   0.13640377 0.42929664 0.87685406
Kr   0.15157445 0.38733080 0.98310769
Kr   0.74736613 0.92717779 0.23290171
Kr   0.04771925 0.62452912 0.10451736
Kr   0.83621246 0.68518245 0.96567100
Kr   0.20332548 0.91278696 0.42647144
Kr   0.76119775 0.07510301 0.87442613
Kr   0.87669224 0.97301352 0.49861687
Kr   0.00373749 0.74933785 0.92831081
Kr   0.09689523 0.04813125 0.33260742
Kr   0.11211006 0.23219541 0.91134495
Kr   0.39804298 0.86962920 0.05385521
Kr   0.66108000 0.11153620 0.76831961
Kr   0.67364627 0.10030901 0.93222487
Kr   0.12801647 0.32733962 0.03765450
Kr   0.87707472 0.49162742 0.98744851
Kr   0.55984402 0.78736019 0.96483225
Kr   0.71764272 0.61970282 0.07154208
Kr   0.92321956 0.77816361 0.27788407
Kr   0.14667453 0.90762210 0.80726898
Kr   0.07092407 0.41163921 0.32035020
Kr   0.82389641 0.47352853 0.42039436
Kr   0.93016481 0.09464391 0.70178050
Kr   0.94970572 0.74596822 0.37889937
Kr   0.41271338 0.83783108 0.35089758
Kr   0.28282815 0.08382872 0.63162154
Kr   0.90832841 0.63037080 0.29977927
Kr   0.31833434 0.44367275 0.80039734
Kr   0.91564161 0.11496469 0.90753382
Kr   0.86450851 0.24284874 0.99914658
Kr   0.89015597 0.18297529 0.03862566
Kr   0.81287521 0.52580935 0.70876986
Kr   0.21474397 0.90180987 0.12304297
Kr   0.81777519 0.44348148 0.55220717
Kr   0.21961449 0.97841370 0.05104474
Kr   0.03098882 0.96478814 0.60456151
Kr   0.98213661 0.46589172 0.26873162
Kr   0.11829016 0.31305179 0.76458210
Kr   0.28981754 0.02922307 0.02067393
Kr   0.84783697 0.22698645 0.46374339
Kr   0.65363455 0.90016186 0.65231019
Kr   0.75910830 0.96419954 0.12557387
Kr   0.97363156 0.08850794 0.09529135
Kr   0.18557976 0.15582696 0.28126839
Kr   0.08253384 0.90723956 0.65984398
Kr   0.09558564 0.09914656 0.57651561
Kr   0.42595646 0.97539735 0.74661571
Kr   0.96394944 0.08752207 0.37223369
Kr   0.11965863 0.27938494 0.55439961
Kr   0.13900824 0.95488518 0.41263977
Kr   0.03594762 0.05969688 0.07625074
Kr   0.50851971 0.94165683 0.66418481
Kr   0.11065333 0.97218955 0.48881698
Kr   0.81316954 0.60241318 0.58950853
Kr   0.91609770 0.81362563 0.98353451
Kr   0.22082107 0.07545615 0.72293997
Kr   0.11984992 0.05626839 0.55391407
Kr   0.53886110 0.85507655 0.11583285
Kr   0.36080047 0.12853149 0.16146262
Kr   0.78675687 0.15668041 0.48747796
Kr   0.06205121 0.44056800 0.64651269
Kr   0.80872571 0.82205713 0.72385228
Kr   0.09306945 0.60929960 0.96759862
Kr   0.71506768 0.79276043 0.62507355
Kr   0.81037378 0.15507650 0.72248381
Kr   0.84555620 0.12577988 0.33315188
Kr   0.16539140 0.83418190 0.37358740
Kr   0.05120659 0.94690990 0.03265156
Kr   0.69261330 0.19545321 0.85300177
Kr   0.90703356 0.01088876 0.52975279
Kr   0.71826077 0.84049439 0.77102703
Kr   0.03880224 0.56389052 0.57422012
Kr   0.47345495 0.21678929 0.20581225
Kr   0.26630372 0.67516184 0.91105062
Kr   0.89945555 0.02756033 0.99392289
Kr   0.94688052 0.45806357 0.22210124
Kr   0.79377574 0.57944381 0.04979400
Kr   0.06830489 0.33346087 0.82148319
Kr   0.70005888 0.53312242 0.88797826
Kr   0.88085639 0.71702474 0.01478811
Kr   0.09585050 0.20912302 0.81403768
Kr   0.26650971 0.15291348 0.07673632
Kr   0.40419364 0.21327253 0.97447026
Kr   0.55978519 0.12213067 0.26814303
Kr   0.96116835 0.56100649 0.05130959
Kr   0.43928781 0.41266921 0.81609774
Kr   0.45100060 0.21281637 0.15388465
Kr   0.91247797 0.58332849 0.15509123
Kr   0.61088872 0.95064747 0.27719247
Kr   0.87151265 0.89514422 0.58915544
Kr   0.83693349 0.43852267 0.93098885
Kr   0.01584756 0.20874044 0.64614481
Kr   0.83020896 0.20366392 0.56773102
Kr   0.91567099 0.72542673 0.28919953
Kr   0.24289288 0.28535903 0.90334022
Kr   0.60756332 0.58965570 0.03541790
Kr   0.59296644 0.90385520 0.18092996
Kr   0.55444378 0.99936730 0.17764862
Kr   0.74087697 0.01044732 0.30638611
Kr   0.83597708 0.72814894 0.25175104
Kr   1.00083876 0.07497057 0.99171579
Kr   0.18962625 0.00729841 0.02314597
Kr   0.51124191 0.76564157 0.89885223
Kr   0.92015892 0.29982343 0.91531789
Kr   0.94761628 0.42107120 0.87364626
Kr   0.65439963 0.98472625 0.87051207
Kr   0.75164807 0.15824014 0.80678338
Kr   0.80250144 0.73113596 0.13771337
Kr   0.15825486 0.56877577 0.19230430
Kr   0.10467922 0.40553266 0.08078281
Kr   0.47029135 0.37728074 0.20776927
Kr   0.05815185 0.37048262 -.00173632
Kr   0.84409952 0.53581524 0.97900230
Kr   0.54330492 0.55139786 0.88582993
Kr   0.99159801 0.86172748 0.43215126
Kr   0.04576221 0.15932903 0.84420252
Kr   0.83263683 -.00045615 0.39053857
Kr   0.04164214 0.49785167 0.54997057
Kr   0.81040323 0.93145967 0.45138317
Kr   0.90414947 0.79020011 0.73886114
Kr   0.92845792 0.97457331 0.15011771
Kr   0.86821663 0.83250439 0.99301064
Kr   0.05713655 0.06280165 0.31484696
Kr   0.03153325 0.59771925 0.90978515
Kr   0.78874338 0.92051208 0.25965273
Kr   0.88834614 0.36817247 0.18228368
Kr   0.78234255 0.87098294 0.06767216
Kr   0.95509118 0.28162155 0.38487345
Kr   0.70560622 0.06770159 0.30269274
Kr   0.08160683 0.12820777 0.02398470
Kr   0.87801647 0.88594764 0.31241909
Kr   0.48290172 0.10891701 0.83902299
Kr   0.61034435 0.31990877 0.08048852
Kr   0.22857565 0.99838138 0.26184520
Kr   0.38403475 0.78818423 0.02611830
Kr   0.67314601 0.53313714 0.03145968
Kr   0.58166569 0.14337847 0.91294879
Kr   0.02248381 0.50890231 0.80918187
Kr   0.44585049 0.03530018 0.90320778
Kr   0.64599764 0.42217481 0.96169811
Kr   0.05813714 0.66612715 0.04636551
Kr   0.33016479 0.13640377 0.61302239
Kr   0.61586225 0.41937906 0.11567099
Kr   0.80453205 0.14767511 0.67271924
Kr   0.98263681 0.88169509 0.51422894
Kr   0.27065921 0.50058860 0.86221308
Kr   0.79823428 0.57603002 0.28422603
Kr   0.94523251 0.97435260 0.20999117
Kr   0.84860218 0.41987935 0.52962035
Kr   0.11937904 0.21309595 0.00766627
Kr   0.57264566 0.23728663 0.04533549
Kr   0.61734849 0.92658919 0.79583579
Kr   0.50690114 0.11481754 0.20738670
Kr   0.23207770 0.22239554 0.28803709
Kr   0.06567098 0.59627724 0.77133608
Kr   0.08238670 0.57369041 0.52477932
Kr   0.63709539 0.27800176 0.10676869
Kr   0.90142733 0.67057091 0.83143026
Kr   0.69426131 0.93034142 0.57592702
Kr   0.99390817 0.84635085 0.15122132
Kr   0.98931730 0.12182166 0.40984404
Kr   0.61540616 0.85743088 0.72970867
Kr   0.05032372 0.47551504 0.67180693
Kr   0.49245143 0.87744266 0.99123013
Kr   0.35545909 0.52801645 0.86740732
Kr   0.09679224 0.58705121 0.87352860
Kr   0.07139494 0.50381106 0.75306064
Kr   0.26128605 0.09561507 0.41103590
Kr   0.84708655 0.92236608 0.39823425
Kr   0.36480284 0.46472925 0.09376104
Kr   0.65183932 0.14873455 0.93972921
Kr   0.20161860 0.77060032 0.91263980
Kr   0.45289877 0.95719546 0.66409653
Kr   0.90641552 0.11291936 0.74665982
Kr   0.43905237 0.12238082 0.01743673
Kr   0.31158033 0.95960855 0.36600944
Kr   0.09227487 0.92585349 0.53525603
Kr   0.72202766 0.95404649 0.17449971
Kr   0.75824010 0.05001472 0.73778695
Kr   0.19576222 0.11166863 0.21443497
Kr   0.18585932 0.35125074 0.93063563
Kr   0.28725719 0.76355207 0.86141849
Kr   0.52882576 0.30066216 0.87193936
Kr   0.05145674 0.94286352 0.27558857
Kr   0.88262218 0.35965273 0.90317839
Kr   0.86222780 0.50579756 0.67026192
Kr   0.03665391 0.91545027 0.67452914
Kr   0.78009123 0.52148318 0.86698055
Kr   0.55245733 0.31721601 0.92508829
Kr   0.11511183 0.04917599 0.87772220
Kr   0.58026785 0.78250444 0.79814601
Kr   0.76459688 0.22987051 0.98995000
Kr   0.93937612 0.59187758 0.30126548
Kr   0.12473515 0.28175399 0.81692177
Kr   0.91639203 0.87638313 0.07457328
Kr   0.86340493 0.63649207 0.95101529
Kr   0.22320482 0.21840790 0.41013831
Kr   0.38296056 1.00047088 0.62158626
Kr   0.02180695 0.66542083 0.20653327
Kr   0.86593586 0.57238078 0.70547384
Kr   0.96291941 0.28859624 0.14517364
Kr   0.47723660 0.34574750 0.92707479
Kr   0.67588288 0.73000294 0.20326664
Kr   0.78763980 0.55376691 0.99941140
Kr   0.06874632 0.82291055 0.38790464
Kr   0.20631254 0.16016775 0.03107710
Kr   0.29552677 0.48429957 0.83512360
Kr   0.17221896 0.51496470 0.75718069
Kr   0.22501472 0.74299586 0.10273691
Kr   0.76721603 0.32376400 0.78222483
Kr   0.66389054 0.02641260 0.89180398
Kr   0.31330195 0.59627724 0.17530900
Kr   0.71595055 0.22151266 0.48232785
Kr   0.34189230 0.77807534 0.16609770
Kr   0.69482052 0.31102118 0.89560038
Kr   0.61430258 0.07906122 0.02211595
Kr   0.90342849 0.08694820 0.25924075
Kr   0.89380521 0.53344613 0.01359623
Kr   0.32711890 0.06034432 0.86484700
Kr   0.35553268 0.74511480 0.93165094
Kr   0.66314012 0.98059154 0.92111534
Kr   0.90431136 0.66927606 0.37460271
Kr   0.08992054 0.36611244 0.03909653
Kr   0.37754562 0.86259568 0.94716012
Kr   0.15388465 0.78752208 0.90029424
Kr   0.08634491 0.15054443 0.37982637
Kr   0.05429665 0.81168336 0.56102115
Kr   0.35204533 0.79028839 0.08906710
Kr   0.98641855 0.46330196 0.45063272
Kr   0.06480283 0.50520897 0.25491464
Kr   0.93122423 0.13079754 0.29440847
Kr   0.44529134 0.92295468 0.11043261
Kr   0.04331960 0.36737785 0.91321367
Kr   0.06322837 0.92449969 0.93841970
Kr   0.89576221 0.98393166 0.45175102
Kr   0.29721895 0.40556210 0.90314889
Kr   0.86177164 0.86250740 0.79168630
Kr   0.51330191 0.21084462 0.24474691
Kr   0.46621543 0.08429959 0.17941436
Kr   0.16478811 0.18422602 0.45977047
Kr   0.98658031 0.95441437 0.68440259
Kr   0.80366391 0.72452915 0.94830781
Kr   0.35317835 0.62841380 0.95129490
Kr   0.07037964 0.32750148 0.66895235
Kr   0.89883757 0.14268687 0.52441144
Kr   0.55801946 0.05041201 0.22558859
Kr   0.15875514 0.60567981 0.80459094
Kr   0.59301060 0.60459095 0.96211010
Kr   0.43507949 0.08056209 0.11206593
Kr   0.89776343 0.42832547 0.52108592
Kr   0.39114186 0.07979694 0.05256033
Kr   0.21428782 0.83225429 0.61670101
Kr   0.75413477 0.56253678 0.84635085
Kr   0.14520307 0.18450558 0.82255739
Kr   0.75669509 0.98940551 0.87732494
Kr   0.64242202 0.49973518 0.94412893
Kr   0.08937610 0.63179815 0.09942614
Kr   0.03200412 0.22313125 0.69352561
Kr   0.99193650 0.43541789 0.89686584
Kr   0.85275161 0.64545321 0.63694817
Kr   0.19892584 0.21752502 0.92653030
Kr   0.34471747 0.01303708 0.81942320
Kr   0.50145674 0.93246025 0.98635960
Kr   0.22839907 0.18781637 0.14465863
Kr   0.93187171 0.10441437 0.14437905
Kr   0.24585050 0.43624189 0.23557976
Kr   0.12108593 0.15331076 0.28644791
Kr   0.97832549 0.04682166 0.76069748
Kr   0.44237787 0.03047381 0.69367272
Kr   0.42916423 0.66044730 0.86052090
Kr   0.60311949 0.09573279 0.73727190
Kr   0.06515598 0.95874041 0.08897881
Kr   0.03864038 0.89723372 0.43771335
Kr   0.45391408 0.19111241 0.46617126
Kr   0.69437903 0.84688056 0.99601239
Kr   0.98042965 0.36742201 0.77401417
Kr   0.23655091 0.88693351 0.74795473
Kr   0.32672161 0.17293997 0.64851385
Kr   0.01440553 0.52196878 0.53032666
Kr   0.45631254 0.73350501 0.98144495
Kr   0.62458795 0.92299885 0.15572396
Kr   0.78509420 0.67763388 0.05022072
Kr   0.13549148 0.50759268 0.14178929
Kr   0.96202177 0.09203944 0.04106827
Kr   0.21321365 0.86124188 0.38098884
Kr   0.70797527 0.96163917 0.93786049
Kr   0.08191583 0.30041203 0.89505589
Kr   0.95292825 0.12601531 0.72563273
Kr   0.02906121 0.33163625 0.70632726
Kr   0.65258974 0.68711007 0.84342259
Kr   0.60476750 0.72472042 0.89539438
Kr   0.51040322 0.07901707 0.07655974
Kr   0.44258386 0.88145965 0.01721601
Kr   0.76266927 0.06141848 0.80404651
Kr   0.60203063 0.63814008 0.12607417
Kr   0.92464685 0.83069450 0.50707769
Kr   0.07969394 0.89546794 0.13441731
Kr   0.36062390 0.14490877 0.76122725
Kr   0.77979696 0.94991171 0.35799000
Kr   0.71492052 0.23338729 0.91250736
Kr   0.54801357 0.68890524 0.84251028
Kr   0.85935849 0.08911125 0.88381398
Kr   0.72221899 0.85557681 0.08799294
Kr   0.46733373 0.93752211 0.34484991
Kr   0.45788699 0.84877867 0.03828723
Kr   0.09334902 0.43869922 0.19177458
Kr   0.39673337 0.99539441 0.96773100
Kr   0.32579461 0.38755149 0.94443786
Kr   0.92323428 0.27557388 0.32354328
Kr   0.41883463 0.47800177 0.78540319
Kr   0.85769576 0.26124191 0.38307828
Kr   0.01533255 0.02807534 0.80816656
Kr   0.55529720 0.35651854 0.84783697
Kr   0.37093878 0.34433490 0.08376987
Kr   0.80133903 0.03170983 0.89888173
Kr   0.31917304 0.83012068 0.91343439
Kr   0.56346381 0.08566804 0.30170688
Kr   1.00091231 0.11018246 0.82982635
Kr   0.14743967 0.94193643 0.75810772
Kr   0.23372573 0.14717481 0.62635374
Kr   0.66683346 0.33285758 0.00943202
Kr   0.60740143 0.93384343 0.49604177
Kr   0.91234547 0.53485870 0.67092407
Kr   0.45659214 0.89429080 0.90481168
Kr   0.61355209 0.06965863 0.11993820
Kr   0.38855210 0.54827845 0.03165097
Kr   0.03616833 0.63812536 0.86108005
Kr   0.95691580 0.93449086 0.32035020
Kr   0.31474397 0.93936139 0.93783110
Kr   0.48584464 0.82750148 0.17886993
Kr   0.99577689 0.17349912 0.11384638
Kr   0.24187757 0.77064455 0.86028546
Kr   0.25394350 0.88569748 0.02542672
Kr   0.67645675 0.11194820 0.72274870
Kr   0.43463802 0.93944973 0.79302531
Kr   0.01817245 0.69692463 0.50841671
Kr   0.37510303 0.88020897 0.10921130
Kr   0.09457034 0.20217775 0.19988228
Kr   0.87157148 0.32605946 0.21877575
Kr   0.91143322 0.14846969 0.70354623
Kr   0.57835495 0.65809298 0.96790761
Kr   0.89767510 0.54402590 0.18215126
Kr   0.95529717 0.44852856 0.37607417
Kr   0.70438492 0.09324603 0.80203062
Kr   0.08179812 0.57672161 0.81982052
Kr   0.33680105 0.83260745 0.00659211
Kr   0.56683344 0.20678341 1.00345790
Kr   0.44245145 0.96868747 0.12273396
Kr   0.58649206 0.79242206 0.16237493
Kr   0.51623017 0.95746028 0.14748381
Kr   0.00796057 0.26927602 0.68349034
Kr   0.73273987 1.00331080 0.41275752
Kr   0.08799294 0.51050621 0.39673337
Kr   0.93696290 0.36917305 0.87442613
Kr   0.21197763 0.04471748 0.18494703
Kr   0.50622427 0.87133610 0.14660095
Kr   0.86868745 0.36190405 0.60765159
Kr   0.15335491 0.61826074 0.91864336
Kr   0.53927308 0.90463507 0.69236320
Kr   0.61255151 0.84526193 0.89623308
Kr   0.92797232 0.37891406 0.78256327
Kr   0.03744850 0.14258386 0.67898768
Kr   0.82672161 0.15470865 0.78706592
Kr   0.58125365 0.49359915 0.07292525
Kr   0.84869039 0.44184816 0.75469398
Kr   0.66009420 0.14258386 0.84927899
Kr   0.35915247 0.05027958 0.15072101
Kr   0.21190406 0.21150677 0.01253679
Kr   0.85619485 0.75956446 0.15806356
Kr   0.73469687 0.03304885 0.05413479
Kr   0.62274867 0.01984991 0.86425841
Kr   0.30456150 0.88571221 0.03440259
Kr   0.31080046 0.69449681 0.00716598
Kr   0.08082696 0.32675102 0.72489703
Kr   0.92293996 0.62057090 0.00089759
Kr   0.89271629 0.95640087 0.40585640
Kr   0.01746616 0.31149206 0.15179518
Kr   0.72903174 0.06753973 0.09689523
Kr   0.04418776 0.01146263 0.58956742
Kr   0.32629487 0.74587989 0.86739260
Kr   0.09545321 0.02349912 0.92379338
Kr   0.00718069 0.60161865 0.74760151
Kr   0.88855213 0.99711597 0.84651268
Kr   0.03315185 0.75729841 0.88674223
Kr   0.00481165 0.43297526 0.70560622
Kr   0.82872277 0.58449090 0.00036786
Kr   0.20690112 0.03284285 0.80818129
Kr   0.45111832 0.03525603 0.08331372
Kr   0.90819603 0.55141258 0.61578870
Kr   0.97912008 0.55279577 0.73537380
Kr   0.04242201 0.44951442 0.97733957
Kr   0.18072395 0.50853443 0.69788116
Kr   0.65693057 0.01113891 0.05426722
Kr   0.94340789 0.22639787 0.11712772
Kr   0.70007360 0.25361979 0.09381989
Kr   0.41733372 0.93166572 0.65553266
Kr   0.72923779 0.60133904 0.02436727
Kr   0.97895819 0.09958800 0.55682755
Kr   0.88852262 0.36768690 0.12402884
Kr   0.41324309 0.42651561 0.06727487
Kr   0.26113892 0.93306357 0.85854918
Kr   0.40036786 0.33840492 0.99995589
Kr   0.43048853 0.06801060 0.77783990
Kr   0.48669806 0.22756034 0.90622431
Kr   0.36653915 0.91191876 0.91531789
Kr   0.90141261 0.27118894 0.44203946
Kr   0.95551789 0.34817541 0.91984993
Kr   0.82402885 0.60126543 0.87839907
Kr   0.14844027 0.09395233 0.50626838
Kr   0.45600355 0.50773984 0.79517365
Kr   0.90849030 0.16489112 0.75640082
Kr   0.76877576 0.35756326 0.95351684
Kr   0.32079166 0.81196290 0.49226013
Kr   0.72732490 0.52967924 0.94058269
Kr   0.37463212 0.90153033 0.28846380
Kr   0.52538264 0.02243967 0.64721894
Kr   0.98085636 0.04905827 0.55373752
Kr   0.88190109 0.50098592 0.46015301
Kr   0.41337553 0.95849031 0.25709242
Kr   0.19214243 0.51834905 0.91748089
Kr   0.94230431 0.69782227 0.13125367
Kr   0.32170397 0.93062097 0.04234844
Kr   0.84398174 0.86174220 0.32363155
Kr   0.47972339 0.05701884 0.03555032
Kr   0.81436145 0.97341084 0.67957622
Kr   0.08296057 0.14554149 0.07657446
Kr   0.69936728 0.03060624 0.33237198
Kr   0.02182166 0.86852562 0.53303415
Kr   0.75934374 0.10712184 0.07376398
Kr   0.79236317 0.89952916 0.91815776
Kr   0.30791643 0.11574456 0.15943202
Kr   0.22104180 0.03225427 0.71475869
Kr   0.37788406 0.88625664 0.67725134
Kr   0.50977045 0.04533549 0.48402002
Kr   0.92342556 0.08993526 0.81241912
Kr   0.19555621 0.93181282 0.69383460
Kr   0.63905239 0.22064450 0.21249264
Kr   0.81980580 0.10211889 0.76052094
Kr   0.89764571 0.93362278 0.17080635
Kr   0.36773100 0.59877872 0.99560040
Kr   0.92338139 0.79133314 0.44268686
Kr   0.13550618 0.46024132 0.84259862
Kr   0.98293120 0.45598882 0.98303413
Kr   0.75790173 0.86812836 0.29355505
Kr   0.18519719 0.71571511 0.65061802
Kr   0.77519131 0.26209536 0.03035609
Kr   0.88862568 0.97583878 0.01341966
Kr   0.72975284 0.13262212 0.13967039
Kr   0.73268098 1.00092709 0.51709825
Kr   0.55567980 0.71753973 0.88619781
Kr   0.78505003 0.16224250 0.95429659
Kr   0.15470865 0.98596227 0.19632137
Kr   0.19162743 -.00283991 0.29402590
Kr   0.93522662 0.64974988 0.07912007
Kr   0.43347558 0.47529426 0.04613008
Kr   0.59286344 0.88755155 0.87728077
Kr   0.34106830 0.82214540 0.87594175
Kr   0.84729254 0.73566800 0.62463218
Kr   0.71887875 0.88750732 0.64782226
Kr   0.02576516 0.39748383 0.78379929
Kr   0.91166866 0.34819013 0.93839020
Kr   0.35799000 0.95929962 -.00260447
Kr   0.23140082 0.30578282 0.39421719
Kr   0.88980287 0.79877871 0.48964098
Kr   0.14355503 0.18246026 0.11533254
Kr   0.33360803 0.79215717 0.96043265
Kr   0.48605064 0.94467330 0.40464979
Kr   0.16155091 0.53009129 0.65506184
Kr   0.19582106 0.01758387 0.33272514
Kr   0.92772222 0.35921133 0.63590348
Kr   0.19698352 0.92139494 0.74857271
Kr   0.72978222 0.79080343 0.02678046
Kr   0.05504709 0.27095351 0.14799882
Kr   0.61845201 0.87566215 0.82892877
Kr   0.48154801 0.14992642 0.97148329
Kr   0.22989994 0.18020895 0.84633607
Kr   -.00257504 0.03737492 0.10150088
Kr   0.88743383 0.56249267 0.94401115
Kr   0.93655092 0.05276633 0.90103006
Kr   0.63678634 0.95682758 0.74832255
Kr   0.56025606 0.12989995 0.80509126
Kr   0.60601825 0.00640082 0.63188642
Kr   0.43075338 0.91995293 0.21968806
Kr   0.19595350 0.56637728 0.67317539
Kr   0.96119773 0.52046788 0.65853447
Kr   0.52321953 0.85709244 0.20501766
Kr   0.80382574 0.65167743 0.64947027
Kr   0.15559153 0.64543849 0.13268100
Kr   0.39883754 0.41384637 0.11758388
Kr   0.46069747 0.89028841 0.05612125
Kr   0.81462628 0.44061214 0.61998236
Kr   0.45186874 0.18665393 0.51702476
Kr   0.14411418 0.84364331 0.29880813
Kr   0.27062979 0.77351385 0.06294879
Kr   0.51736313 0.23282814 1.00604773
Kr   0.38787523 0.04264273 0.54876399
Kr   0.62527955 0.12361684 0.90637141
Kr   0.06774574 0.71621543 0.50167751
Kr   0.55769575 0.07628017 0.45616537
Kr   0.17741320 0.78072393 0.99505591
Kr   0.34470278 0.15016186 0.12007063
Kr   0.66553855 0.17657445 0.70650381
Kr   0.67934078 0.61926132 -.00207475
Kr   0.13884638 0.81453794 0.34131843
Kr   0.93896413 0.47769278 0.32797232
Kr   0.87766331 0.53148907 0.31103590
Kr   0.57183635 0.32323423 0.97046798
Kr   0.71826077 0.13819894 0.45120659
Kr   0.75703359 0.61564159 0.84230429
Kr   0.35984403 0.87326372 0.84504122
Kr   0.05935844 0.66261035 0.16653915
Kr   0.96495003 0.30054444 0.55737203
Kr   0.10467922 0.54423189 0.76305181
Kr   0.20748970 0.08366686 0.39354032
Kr   0.15854914 0.13725722 0.47430843
Kr   0.06836374 0.50643027 0.70791644
Kr   0.08831666 0.40154502 0.17080635
Kr   0.25937319 0.82399940 0.87155682
Kr   0.09611537 0.95929962 0.90831375
Kr   0.22948793 0.93427014 0.58797824
Kr   0.47346967 1.00026488 0.44985285
Kr   0.93541789 0.53744853 0.84632134
Kr   0.77909064 0.00525309 0.17163037
Kr   0.72651559 0.24571806 0.85843146
Kr   0.86275750 0.12068864 0.01995291
Kr   0.97467625 0.90541500 0.67657447
Kr   0.03824309 0.30781344 0.82661855
Kr   0.17043850 0.97179222 0.38512361
Kr   0.63711005 0.11714244 0.10460565
Kr   0.08265156 0.53028250 0.58360797
Kr   0.13574162 0.97582406 0.71216893
Kr   0.86437613 0.69329017 0.64829308
Kr   0.12773690 0.86471450 0.85183930
Kr   0.86467040 0.81250733 0.44555622
Kr   0.45953503 0.20089759 0.94880819
Kr   0.54668921 0.68190110 0.97557390
Kr   0.99418783 0.77224839 0.77700120
Kr   0.02632431 0.42093879 0.05888758
Kr   0.87732494 0.72967923 0.96717185
Kr   0.59596819 0.21637729 0.88574159
Kr   0.73120958 0.91781932 0.97399944
Kr   0.81175691 0.07859035 0.88025308
Kr   0.93606538 0.80591524 0.32432315
Kr   0.43095940 0.93878752 0.04070041
Kr   0.12934078 0.92252797 0.29005298
Kr   0.44655681 0.01911419 0.95482635
Kr   0.84462923 0.09451148 0.80086815
Kr   0.34358448 0.03188641 0.68656564
Kr   0.85487050 0.27004120 0.43671280
Kr   0.12569158 0.96527368 0.03521189
Kr   0.09973514 0.06184521 0.48864040
Kr   0.79287815 0.66442025 0.18852267
Kr   0.63984698 0.97835493 0.82909065
Kr   0.69139200 0.13650678 0.91147733
Kr   0.10344321 0.01795174 0.45984402
Kr   0.87864923 0.91469979 0.68262213
Kr   0.59020013 0.78457916 0.02036492
Kr   0.27655974 0.14407004 0.35138315
Kr   0.90971160 0.89512950 0.94373167
Kr   0.02442613 0.85238379 0.37595645
Kr   0.81472927 0.63468218 0.98831666
Kr   0.87096828 0.38815480 0.80264860
Kr   0.76287526 0.00356092 0.08518246
Kr   0.93643320 0.96077102 0.27149794
Kr   0.13184226 0.17171866 0.37210125
Kr   0.95167750 0.57111537 0.25790173
Kr   0.91437608 0.73225427 0.85915244
Kr   0.27252796 0.12254267 0.97897291
Kr   0.67039436 0.07263096 0.55924076
Kr   0.00304591 0.61712772 0.35226604
Kr   0.20166275 0.12442614 0.06309594
Kr   0.80654800 0.77857560 0.37383756
Kr   0.50236905 0.21053560 0.13512360
Kr   0.79246616 0.10566510 0.79277515
Kr   0.79970568 0.96546495 0.07811949
Kr   0.77942908 0.48700708 0.17857563
Kr   0.42020306 0.90609181 0.85734254
Kr   0.64515895 0.06009417 0.76547968
Kr   0.85464984 0.66999710 0.01915833
Kr   0.23930255 0.95322245 0.22675103
Kr   0.11675986 0.72039437 0.86926132
Kr   0.03669806 0.80178046 0.34621835
Kr   0.52432311 0.05208946 0.03329900
Kr   0.82672161 0.98153329 0.22935550
Kr   0.93647736 0.81287521 0.65806359
Kr   0.01774573 0.64537966 0.39083287
Kr   0.62722188 0.03416716 0.60132432
Kr   0.96873158 0.25994703 0.43079755
Kr   0.87332261 0.80319303 0.28678635
Kr   0.22037964 0.85088289 0.84752798
Kr   0.97733957 0.82374924 0.48908180
Kr   0.00020600 0.04002354 0.15027958
Kr   -.00008829 0.22632430 0.45356092
Kr   0.34724841 0.10916716 0.30200118
Kr   0.28565332 0.30247205 0.94811654
Kr   0.88866985 0.02065921 0.70653325
Kr   0.14103885 0.09318718 0.74788111
Kr   0.15297234 0.88933194 0.68678635
Kr   0.31084463 0.17026192 0.39402589
Kr   0.14270160 0.56668633 0.90557683
Kr   0.98017949 0.92572099 0.41187462
Kr   0.81868750 0.96708357 0.90482640
Kr   0.16926134 0.38478518 0.46565628
Kr   0.54579163 0.92995882 0.02033549
Kr   0.44810182 0.16431725 0.72307241
Kr   0.56368452 0.02324897 0.94455564
Kr   0.21225722 0.85594463 0.02497057
Kr   0.11671572 0.61846673 0.62786931
Kr   0.88009125 0.63685989 0.44585049
Kr   0.92430848 0.42293996 0.18796352
Kr   0.79585052 0.51082993 0.77536786
Kr   0.95035315 0.95821077 0.40597412
Kr   0.27728075 0.14471748 0.41503826
Kr   0.23949380 0.54886699 0.84140670
Kr   0.26652443 0.77959090 0.90467924
Kr   0.74595350 0.25389934 0.06494997
Kr   0.77452916 0.69777811 0.09457034
Kr   0.39287817 0.51350796 0.91241908
Kr   0.33278400 0.20693055 0.70441437
Kr   0.91765743 0.53351969 0.90906417
Kr   0.14904355 0.45356092 0.14899942
Kr   0.97501475 0.34415832 -.00563567
Kr   0.94440848 0.98690408 0.31225723
Kr   0.13137141 0.86022657 0.39791054
Kr   0.13266627 0.89564449 0.57714832
Kr   0.79842556 0.88256329 0.86867273
Kr   0.66942316 0.89437908 0.19540906
Kr   0.87791348 0.78369629 0.95863748
Kr   0.46393466 0.92928195 0.25278106
Kr   0.94320190 0.71484697 0.56708360
Kr   0.22113007 0.46219835 0.90085346
Kr   0.39489406 0.95590049 0.19924957
Kr   0.24807239 0.01256622 0.47432315
Kr   0.35114774 0.47239554 0.00185403
Kr   0.80435556 0.95520896 0.72361684
Kr   0.63256323 0.02658917 0.44483522
Kr   0.92366099 0.86446440 0.58437318
Kr   0.99180400 0.77497059 0.12152737
Kr   0.91858447 0.51525897 0.74100941
Kr   0.93479991 0.24304003 0.83790469
Kr   0.64543849 0.80467921 0.10501766
Kr   0.20132431 0.49183342 0.12616245
Kr   0.89246619 0.86281639 0.41881987
Kr   0.56840789 0.12626545 0.21839318
Kr   0.02854620 0.15019129 0.04014126
Kr   0.54211301 0.92514718 0.78447616
Kr   0.97196883 0.60282516 0.02619188
Kr   0.09696881 0.28902295 0.93474108
Kr   0.13319600 0.21804002 0.77093881
Kr   0.87729543 0.47254264 0.74115658
Kr   0.86347854 0.08665391 0.75185406
Kr   0.80039734 0.93042964 0.04858740
Kr   0.08771336 0.19585051 0.09396704
Kr   0.90535611 0.81197762 0.39879340
Kr   0.11259565 0.49910241 0.51840788
Kr   0.31249264 0.32807535 0.97834021
Kr   0.48896408 0.89457029 0.22055621
Kr   0.93630075 0.72716302 0.51996768
Kr   0.37310183 0.59852850 0.79930842
Kr   0.83525604 0.94927901 0.76543558
Kr   0.85921127 0.14121543 0.47842848
Kr   0.01658328 0.43084168 0.93291646
Kr   0.70275164 0.85319310 0.18830195
Kr   0.31881988 0.91160977 0.34148028
Kr   0.97426426 0.08840495 0.16433196
Kr   0.80622429 0.88353443 0.47716308
Kr   0.89448208 0.69498235 0.41753972
Kr   0.73456448 0.49532077 0.89562982
Kr   0.53663921 0.54807240 0.17580929
Kr   0.28184226 0.82680988 0.26193351
Kr   0.88659507 0.99125952 0.90666568
Kr   0.23060624 0.32424957 0.93404949
Kr   0.29807240 0.94002354 0.23266628
Kr   0.03812537 0.04717481 0.97851676
Kr   0.82533842 0.37037963 0.85927016
Kr   0.93313718 0.49658626 0.38013539
Kr   0.44967628 0.32255739 0.01559741
Kr   0.17856093 0.67082107 0.08462331
Kr   0.97708946 0.45619482 0.84805769
Kr   0.14521778 0.39726308 0.51681876
Kr   0.95885819 0.70560622 0.34720424
Kr   0.28118008 0.98828727 0.21311066
Kr   0.77099764 0.81780457 0.78868449
Kr   0.10167746 0.58987641 0.68569744
Kr   0.47323424 0.02448499 0.18999411
Kr   0.04149500 0.21698058 0.60382575
Kr   0.61266923 0.15529723 0.07370512
Kr   0.12232195 0.94457036 0.36674514
Kr   0.21623014 0.91405237 0.19162743
Kr   0.53316659 0.95063281 0.50750446
Kr   0.42834023 0.78560919 0.91063863
Kr   0.46608299 0.01977634 0.13419658
Kr   0.43481460 0.86840785 0.82650089
Kr   0.51833433 0.84579164 0.49743968
Kr   0.60051501 0.20470865 0.11258093
Kr   0.70001477 0.05759270 0.75008833
Kr   0.98515296 0.81387585 0.30079457
Kr   0.33163625 0.19830783 0.04180400
Kr   0.13886110 0.55875516 0.15064745
Kr   0.31546497 0.32614776 0.85940260
Kr   0.02844320 0.96472931 0.21912891
Kr   0.89096528 0.07680988 0.85189819
Kr   0.71954095 0.96102118 0.44281930
Kr   0.77928191 0.49780756 0.98390228
Kr   0.83746326 0.34568864 0.19632137
Kr   0.28850797 0.04535021 0.32263097
Kr   0.81564158 0.12002648 0.51926136
Kr   0.70773983 0.11571512 0.08172455
Kr   0.27064449 0.90616542 0.98238671
Kr   0.07823720 0.28206298 0.83705121
Kr   0.91927606 0.67845798 0.93118012
Kr   -.00058858 0.79440844 0.67711890
Kr   0.98936141 0.31113893 0.70672452
Kr   0.03143025 0.71581811 0.28528547
Kr   0.47255743 0.08646262 0.90738672
Kr   0.46131548 0.96337551 0.88569748
Kr   0.93506479 0.53915536 0.41957033
Kr   0.44816071 0.99278992 0.21656857
Kr   0.99230427 0.48719835 0.35620955
Kr   0.03690406 0.48140082 0.29810184
Kr   0.17422013 0.80581224 0.72745734
Kr   0.72626543 0.08899353 0.92127723
Kr   0.85737199 0.13268100 0.56605357
Kr   0.00629782 0.37889937 0.24267218
Kr   0.19814597 0.58191586 0.03231313
Kr   0.62057090 0.93491757 0.85242790
Kr   0.64421719 0.90525311 0.08637433
Kr   0.90763682 0.94607121 0.89474690
Kr   0.27248383 0.99389344 0.72458798
Kr   0.99479109 0.20100059 0.59932315
Kr   0.05890229 0.92308712 0.82439673
Kr   0.10400236 0.02258682 0.07246910
Kr   0.47664806 0.99724841 0.66611242
Kr   0.84170103 0.80310476 0.02414656
Kr   0.13063568 0.10760742 0.09721895
Kr   0.61781931 0.67869335 0.01787816
Kr   0.23928781 0.86549443 0.97416133
Kr   0.04392289 0.24564451 0.02781048
Kr   0.06010889 0.43577105 0.92344028
Kr   0.13198940 0.15781343 0.51290464
Kr   0.34181872 0.85648912 0.40423781
Kr   0.84484994 0.49570337 0.94527662
Kr   0.71106535 0.42834023 0.95148623
Kr   0.03750736 0.26328722 0.07045321
Kr   0.85036790 0.42432314 0.33313712
Kr   0.84580636 0.88488817 0.17838435
Kr   0.98890525 0.60323715 0.68312240
Kr   0.89173043 0.98219544 0.07279282
Kr   0.12291053 0.21085933 0.72007066
Kr   0.90732783 0.95723957 0.36506769
Kr   0.36391997 0.40860799 0.96118301
Kr   0.39365804 0.00348735 0.13713948
Kr   0.80086815 0.34560034 0.15788698
Kr   0.18176869 0.83763975 0.99371684
Kr   0.76461154 0.86932015 0.16193350
Kr   0.14939670 0.47732490 0.35353148
Kr   0.08612420 0.65319306 0.30819601
Kr   0.71077108 0.66587698 0.96075630
Kr   0.94473225 0.04156857 0.09386404
Kr   0.60307533 0.06331666 0.85635674
Kr   0.32167453 0.48284283 0.04305474
Kr   0.96993822 0.43113595 0.16949676
Kr   0.83808124 0.90222186 0.63144493
Kr   0.59819013 0.97526485 0.15000001
Kr   0.13557975 0.23800765 0.61861390
Kr   0.61178637 0.36718661 0.07404356
Kr   0.28129783 0.96143317 0.07773691
Kr   0.98653620 0.23846379 0.19548264
Kr   0.91362566 0.24505591 0.04573279
Kr   0.81525898 0.86873162 0.76736319
Kr   0.53768396 0.99833727 0.55317837
Kr   0.17935550 0.86673045 0.10498823
Kr   0.16096233 0.84874928 0.21829018
Kr   0.36255151 0.37836963 0.91343439
Kr   0.13924368 0.83578575 0.73293114
Kr   0.99504125 0.55364919 0.15581223
Kr   0.86109477 0.83141553 0.65876991
Kr   0.90672451 0.12291053 0.86216891
Kr   0.98482931 0.88216597 0.23449087
Kr   0.20938787 0.97258681 0.48159212
Kr   0.05700412 0.23503532 0.82092410
Kr   0.01047675 0.93132722 0.57594174
Kr   0.70925546 0.11581813 0.03188641
Kr   0.49905828 0.88509423 0.87052679
Kr   0.78082693 0.93029726 0.75432611
Kr   0.72844321 0.04474691 0.38471159
Kr   0.11871689 0.51094759 0.72002649
Kr   0.98491758 0.26303709 0.29613009
Kr   0.96394944 0.66497940 0.03677163
Kr   0.86958504 0.24671866 0.25710711
Kr   0.40478224 0.73839021 0.91829020
Kr   0.64680696 0.24651267 0.16481754
Kr   0.02644202 0.26718661 0.55026489
Kr   0.87723660 0.69128901 0.09615950
Kr   0.26072690 0.47942910 0.04645380
Kr   0.34208357 0.05320777 0.97489697
Kr   0.76128608 0.79239261 0.33035609
Kr   0.81225723 0.82366103 0.97374934
Kr   -.00273690 0.58794880 0.25581226
Kr   0.99314308 0.71701002 0.79286343
Kr   0.95657742 0.00319305 0.26718661
Kr   0.17373456 0.93778694 0.96462625
Kr   0.55169219 0.66150677 0.91961449
Kr   0.90100056 0.88207769 0.16774572
Kr   0.05844614 0.12676574 0.34973514
Kr   0.09608594 0.31979105 0.46306652
Kr   0.51899648 0.22229253 0.93849325
Kr   0.27678046 0.79957330 0.96662748
Kr   0.89158326 0.90420836 0.88363743
Kr   0.09352560 0.26178634 0.78942025
Kr   0.88490289 0.32620659 0.52255738
Kr   0.62947321 0.12672161 0.01636257
Kr   0.16122720 0.61312538 -.00033843
Kr   0.18291642 0.65157443 0.77470571
Kr   0.57744265 0.70672452 0.93803710
Kr   0.06778987 0.54365802 0.65470862
Kr   0.84514421 0.62972337 0.78362274
Kr   0.09885227 0.25504708 0.69749856
Kr   0.17783992 0.25063273 0.50984401
Kr   0.80584168 0.91748089 0.79106832
Kr   0.87357271 0.29595351 0.56275749
Kr   0.80559152 0.64278984 0.33170983
Kr   0.96620077 0.50796056 0.30166274
Kr   0.76369923 0.32851678 0.10345792
Kr   0.46843731 0.57101238 0.02104179
Kr   0.44947028 0.63630074 0.02221895
Kr   0.79596823 0.46350795 0.94052386
Kr   0.58516777 0.05695998 0.36040318
Kr   0.27040908 0.24087700 0.03677163
Kr   0.88256329 0.68138611 0.97647148
Kr   0.54376101 0.22410241 0.79857272
Kr   0.13460860 0.06974690 0.96643615
Kr   0.67030609 0.29621837 0.98875809
Kr   0.29580638 0.75489998 0.98101825
Kr   0.04399647 0.76007944 0.46455267
Kr   0.95239848 0.08350500 0.75573868
Kr   0.41870219 0.84036201 0.60338438
Kr   0.83950859 0.44221601 0.18044437
Kr   0.91372865 0.15104474 0.00890230
Kr   0.36625957 0.93912601 0.05925544
Kr   0.22906122 0.86499411 0.30353150
Kr   0.16496469 0.22042377 0.39916128
Kr   0.85254562 0.98229849 0.69686586
Kr   0.97695702 0.75331080 0.03633020
Kr   0.07644203 0.47633904 0.95364916
Kr   0.07679518 0.84227490 0.89252502
Kr   0.95378166 0.04826368 0.15609182
Kr   0.10875515 0.57719249 0.24130371
Kr   0.95057386 0.86146259 0.46749559
Kr   0.19766039 0.22330782 0.54251027
Kr   0.49708655 0.16409653 0.24841084
Kr   0.95223659 0.19707181 0.92012954
Kr   0.11174220 0.61085933 0.77321953
Kr   0.74561507 0.78641850 0.06702472
Kr   0.86733371 0.93715423 0.91224247
Kr   0.86044735 0.84729254 0.27663329
Kr   0.20978516 0.36802530 0.88241619
Kr   0.38452032 0.60020602 0.90000004
Kr   0.97148329 0.17726605 0.05800471
Kr   0.39140671 0.08637433 0.59889644
Kr   0.75095648 0.71288997 0.93812537
Kr   0.31461155 0.98588878 0.98132730
Kr   0.77146852 0.92598587 0.10341378
Kr   0.09535021 0.88260740 0.02241024
Kr   0.61375809 0.65775460 0.83151853
Kr   0.83246028 0.88616830 0.68482929
Kr   0.91887873 0.26883462 0.97960562
Kr   0.83702177 0.18362272 0.62382287
Kr   0.13447617 0.01088876 0.78808123
Kr   0.08911125 0.95718074 0.00632725
Kr   0.41768688 0.76475871 0.79686582
Kr   0.87246913 0.18675692 0.98275459
Kr   0.19142142 0.87900233 0.64873457
Kr   0.48925838 0.97884053 0.09966157
Kr   0.50180990 0.38443202 0.00194232
Kr   0.20356092 0.78178340 0.84146559
Kr   0.73587400 0.82101238 0.29136258
Kr   0.65406126 0.29846969 0.93427014
Kr   0.27614775 0.44667453 0.07580930
Kr   0.18861094 0.30155975 0.36695114
Kr   0.23157740 0.02682460 0.64262801
Kr   0.20988818 0.98260742 0.36642143
Kr   0.04474691 0.26971748 0.91870219
Kr   0.28056210 0.15095644 0.48827249
Kr   0.07391112 0.28412300 0.56834906
Kr   0.01115362 0.69411421 0.17201294
Kr   0.91475868 0.04671866 0.66565627
Kr   0.78179812 0.18978810 0.52349913
Kr   0.13543262 0.43992054 0.49692467
Kr   0.93934673 0.85244262 0.21119776
Kr   0.08228370 0.78633016 0.59396708
Kr   0.92482346 0.43744850 0.97089469
Kr   0.00388464 0.47748676 0.41319895
Kr   0.05673926 0.95897585 0.43151855
Kr   0.12520601 0.94387883 0.80578285
Kr   0.99015599 0.25906417 0.63874340
Kr   0.84977931 0.38421130 0.08128311
Kr   0.05651854 0.61112422 0.63163626
Kr   0.82557386 0.93844908 0.49072984
Kr   0.63800770 0.06742201 0.40057388
Kr   0.88565332 0.06119776 0.41979104
Kr   0.87105650 0.92595649 0.28016481
Kr   0.10213361 0.83553565 0.60123605
Kr   0.12301353 0.81065333 0.23201883
Kr   0.86598003 0.40456149 0.64068574
Kr   0.12133609 0.94112712 0.17703061
Kr   0.53004706 0.90987343 0.84392291
Kr   0.05450265 0.38602120 0.84346676
Kr   0.12716304 0.02533844 0.02854620
Kr   0.05375221 0.39573276 0.45678338
Kr   0.59281927 0.88743383 0.25291348
Kr   0.87966454 0.64074451 0.12597115
Kr   0.04729253 0.84046501 0.02161566
Kr   0.08893467 0.74103886 0.01178635
Kr   0.79535019 0.89642441 0.43350503
Kr   0.06221307 0.32189524 0.94064152
Kr   0.69267219 0.98531485 0.32441142
Kr   0.64705706 0.09286345 0.25771043
Kr   0.19043556 0.24761623 0.62485284
Kr   0.68738967 0.65866685 0.03981754
Kr   0.22910535 0.70701885 0.01496468
Kr   0.44230431 0.19874926 0.67772216
Kr   0.26290467 0.28025308 0.84181869
Kr   0.64674807 0.90531200 0.60857862
Kr   0.03437316 0.31458211 0.87151265
Kr   0.41403767 0.93053263 0.89855802
Kr   0.16705415 0.60035312 0.74354029
Kr   0.89083284 0.52785462 0.86130077
Kr   0.37941435 0.98712480 0.08334314
Kr   0.32333729 0.04577693 0.93273985
Kr   -.00429665 0.13683049 0.75025016
Kr   0.35392877 0.82689816 0.13619776
Kr   0.56007946 0.89446729 0.20907886
Kr   0.30328134 0.85391408 0.86820185
Kr   0.37142438 0.87510300 0.25544438
Kr   0.93178344 0.47736907 0.41873163
Kr   0.74774873 0.97552967 0.92090935
Kr   0.13915539 0.59379047 0.85236901
Kr   0.55668044 0.95133901 0.15153033
Kr   0.99586523 0.98385817 0.73716891
Kr   0.07785462 0.25821072 0.51705414
Kr   0.78855211 0.57541203 0.87114477
Kr   0.96839315 0.43156269 0.42913479
Kr   0.20656268 0.60503238 0.77845794
Kr   0.67692763 0.02377869 0.53065038
Kr   0.14299589 0.36834905 0.93438786
Kr   0.58410829 0.95472342 0.19636552
Kr   0.06745145 0.50414950 0.20634197
Kr   0.94891113 0.50565034 0.77279282
Kr   0.08253384 0.70491463 0.89552683
Kr   0.48488817 0.20506181 0.83092999
Kr   0.87592703 0.23655091 0.80567986
Kr   0.48157743 0.94888169 0.29474691
Kr   0.36262506 0.31902590 0.12945852
Kr   0.86322838 0.85722482 0.87610364
Kr   0.99345201 0.80610657 0.45191288
Kr   0.39838138 0.99693936 0.24180402
Kr   0.57033545 0.05151560 0.03950853
Kr   0.24490876 0.01431725 0.21583284
Kr   0.50592995 0.92775160 0.55419362
Kr   0.88025308 0.43606535 0.14599764
Kr   0.07838435 1.00197184 0.82199824
Kr   0.62357265 0.10323720 0.29930842
Kr   0.28268099 0.95544440 0.40748972
Kr   0.29429075 0.09605651 0.84663033
Kr   0.44798410 0.57301354 0.13582990
Kr   0.80248672 0.98396122 0.85239851
Kr   0.99577689 0.69071513 0.12096822
Kr   0.96675980 0.66965860 0.79214245
Kr   0.04267216 0.08198941 0.80313420
Kr   0.13865510 0.64343733 0.75554740
Kr   0.23771337 0.14143614 0.44920543
Kr   0.01836374 0.80565035 0.02879635
Kr   0.70906419 0.25643027 0.03628605
Kr   0.91439080 0.09671866 0.44854325
Kr   0.06425839 0.79567397 0.03524132
Kr   0.02889935 0.02486757 0.28519717
Kr   0.20557681 0.02820777 0.06446439
Kr   0.95182455 0.41444969 0.94024426
Kr   0.75420839 0.19582106 0.91957033
Kr   0.80323720 0.63382876 0.21905532
Kr   0.02124779 0.31340495 0.07884049
Kr   0.28903767 0.11533254 0.31468511
Kr   0.36143321 0.95388460 0.59420246
Kr   0.73088586 0.73797822 0.06834903
Kr   0.33115068 0.18569747 0.96674514
Kr   0.51731902 0.09905827 0.15940259
Kr   0.75044143 0.40489995 0.93811071
Kr   0.25874043 0.97140962 0.16258092
Kr   0.01272808 0.56055033 0.07289582
Kr   0.22773691 0.63487345 0.21814303
Kr   0.01278693 0.80791640 0.23248971
Kr   0.56172746 0.13479988 0.08547675
Kr   0.20979989 0.15456150 0.23427016
Kr   0.88360798 0.93861091 0.96006477
Kr   0.90467924 0.24908769 0.18110652
Kr   0.69536495 0.45623899 0.08010595
Kr   0.97220421 0.76484698 0.41366982
Kr   0.03303413 0.73172456 0.14209829
Kr   0.51281637 0.61907005 0.91044736
Kr   0.39907300 0.08075339 0.97267509
Kr   0.09992643 0.89480579 0.33153325
Kr   0.96389049 0.01305180 0.04995586
Kr   0.27455857 0.06695115 0.04910241
Kr   0.17564745 0.41837847 0.65798998
Kr   0.83713949 0.09838140 0.94143617
Kr   0.04359918 0.14846969 0.54005295
Kr   0.07697175 0.10117716 0.88465273
Kr   0.89426130 0.13346085 0.23705122
Kr   0.12360211 0.87123311 0.15167746
Kr   0.77800179 0.11122719 0.71325779
Kr   0.17942908 0.62904650 0.95866686
Kr   0.91564161 0.11528841 0.04711595
Kr   0.83716893 0.39451149 0.99492347
Kr   0.66283113 0.30067688 0.19938199
Kr   0.66225719 0.21256621 0.48747796
Kr   0.28700706 0.89832252 0.76281637
Kr   0.76727492 0.82538259 0.09278988
Kr   0.53109181 0.81703943 0.75100058
Kr   0.89732194 0.91649503 0.42193937
Kr   0.05310477 0.04020012 0.04037669
Kr   0.95397294 0.21015303 0.02133608
Kr   0.11150677 0.16500883 0.23468217
Kr   0.54404062 0.25884342 0.82700115
Kr   0.31131548 0.47379345 0.87841374
Kr   0.72439671 0.34848443 0.81730431
Kr   0.10688640 0.14771923 0.34230432
Kr   0.10613596 0.57894349 0.09183343
Kr   0.62786931 0.12464685 0.57479399
Kr   0.70535612 0.98201883 0.04115656
Kr   0.25275162 0.33911124 0.80025011
Kr   0.25504708 0.59199530 0.05978517
Kr   0.06421424 0.02948793 0.16118306
Kr   0.24215716 0.13515304 0.77729547
Kr   0.46266922 0.79384935 0.09239258
Kr   0.94099474 0.97095352 0.84173042
Kr   0.53681576 0.28672749 0.95672452
Kr   0.64517367 0.12563273 0.47277811
Kr   0.27956152 0.40472335 0.95445848
Kr   0.16636257 0.99852854 0.87417603
Kr   0.06911419 0.13708064 0.11990877
Kr   0.46765745 0.40313420 0.93416715
Kr   0.82033551 0.02891407 0.21914361
Kr   0.10091230 0.96812832 0.27494115
Kr   0.07738376 0.94074452 0.12655973
Kr   0.93687463 0.13325486 0.42276341
Kr   0.74817544 0.20682755 0.83961159
Kr   0.15459093 0.51759857 0.81867278
Kr   0.16478811 0.77806062 0.82283694
Kr   0.83237201 0.25314891 0.96502358
Kr   0.13206299 0.27678046 0.25665095
Kr   0.99676275 0.91483229 0.72575045
Kr   0.83911127 0.27987051 0.76623017
Kr   0.04289288 0.46831959 0.87015897
Kr   0.18369630 0.07445556 0.08886109
Kr   0.89667451 0.44542378 0.30941731
Kr   0.20935844 0.62477928 0.11890819
Kr   0.30598882 0.19720425 0.46929076
Kr   0.22653033 0.16781931 0.28128311
Kr   0.46973220 0.80197173 0.38023838
Kr   0.97101235 0.78518248 0.25098586
Kr   0.61973220 0.16324309 0.70095646
Kr   0.21121249 0.11575928 0.00818128
Kr   0.97541201 0.40637141 0.47276342
Kr   0.99639487 0.38094467 0.08273985
Kr   0.15334019 0.20470865 0.22629488
Kr   0.46350795 0.90369338 0.64530605
Kr   0.10150088 0.25125074 0.21795174
Kr   0.19611536 0.81751031 0.42741320
Kr   0.87872279 0.45183933 0.42480874
Kr   0.29621837 0.86758387 0.38761035
Kr   0.15338434 0.98357862 0.34112716
Kr   0.24558565 0.82809007 0.98774278
Kr   0.86477339 0.33671278 0.98705125
Kr   0.01693643 0.60738671 0.17672160
Kr   0.85810775 0.98843443 0.73696291
Kr   0.20723955 0.28235725 0.84130371
Kr   0.81674516 0.89386410 0.08365215
Kr   0.57467628 0.96655381 0.93790466
Kr   0.86942315 0.96915829 0.86892289
Kr   0.76099175 0.44814596 0.90696001
Kr   0.45878461 0.84196591 0.09352560
Kr   0.07585344 0.84639496 0.45492938
Kr   0.70519423 0.13359331 0.39420250
Kr   0.22391112 0.25153032 0.58056211
Kr   0.17113008 0.28571218 0.47067392
Kr   0.90902001 0.40643027 0.13300471
Kr   0.81468511 0.12298410 0.00949088
Kr   0.14967628 0.26294881 0.91458207
Kr   0.11625957 0.89705712 0.93703651
Kr   0.39729252 0.03040024 0.79109770
Kr   0.13968511 0.81665689 0.94988233
Kr   0.27054149 0.98980284 0.63487345
Kr   0.66539145 0.43063569 0.03925839
Kr   0.56241906 1.00002944 0.05959388
Kr   0.97563273 0.20397294 0.29392290
Kr   0.02195409 0.25987345 0.23019424
Kr   0.04504120 0.61537671 0.43168041
Kr   0.11946734 0.86150676 0.25423780
Kr   0.19152443 0.12298410 0.36177164
Kr   0.41596526 0.07906122 0.91954094
Kr   0.23900825 0.68290174 0.95912302
Kr   0.82754564 0.32382283 0.84483522
Kr   0.97592700 0.23076810 0.73045909
Kr   0.46122718 0.04640966 0.82429373
Kr   0.09988229 0.94502646 0.31977636
Kr   0.52123308 1.00217783 0.02330783
Kr   0.02079164 0.62152737 0.23017952
Kr   0.79334903 0.07392585 0.93076813
Kr   0.08078281 0.06296351 0.95129490
Kr   0.61946732 0.67803121 0.95178044
Kr   0.95263386 0.74355507 0.17516187
Kr   0.03034138 0.24796939 0.95613593
Kr   0.82348442 0.28346086 0.88288701
Kr   0.90194237 0.51867276 0.95572394
Kr   0.08656563 0.36556798 0.94118601
Kr   0.37929666 0.12155680 0.25359035
Kr   0.54329020 0.62161565 0.94535023
Kr   0.25588581 0.75055915 0.94735146
Kr   0.94579166 0.88032669 0.72545612
Kr   0.98497653 0.03858152 0.26412597
Kr   0.53953797 0.43590349 0.14667453
Kr   0.09324603 0.50928485 0.84886700
Kr   0.24334903 0.20231017 0.04072984
Kr   0.16241908 0.04445262 0.83631545
Kr   0.36764273 0.35616538 0.96082985
Kr   0.98594761 0.07030606 0.42550030
Kr   0.91575927 0.92426425 0.24052384
Kr   0.69969100 0.15153033 0.99521780
Kr   0.82700115 0.63394642 0.04458505
Kr   0.08983225 0.24537964 0.05644497
Kr   0.67854619 0.19106828 0.23568276
Kr   0.00946145 0.22576517 0.76137435
Kr   0.43656564 0.82651556 0.17055620
Kr   0.95226610 0.88944966 0.42635375
Kr   0.06834903 0.82326370 0.98855209
Kr   0.55604768 0.82127720 0.80769569
Kr   0.32832548 0.86702472 0.95801950
Kr   0.15064745 0.56068277 0.61583287
Kr   0.09379046 0.69153917 0.95432615
Kr   0.94586521 0.28012067 0.73702180
Kr   0.92476457 0.14208359 0.08721307
Kr   0.17455857 0.61520010 0.16843732
Kr   0.45002943 0.21403767 0.85725427
Kr   0.95734251 0.13790464 0.87698644
Kr   0.36365512 0.77919364 0.88271040
Kr   0.22458799 0.60467923 0.98905241
Kr   0.15587111 0.88931727 0.28987640
Kr   0.08637433 0.99012655 0.13038552
Kr   0.27267510 0.02193938 0.92061508
Kr   0.53475571 0.13665392 0.92121834
Kr   0.14214243 0.19131842 0.16528840
Kr   0.84317243 0.51733375 0.26205119
Kr   0.54120070 0.94846970 0.07374927
Kr   0.02064450 0.66949677 0.25101531
Kr   0.97682464 0.78362274 0.81954092
Kr   0.35741615 0.75876993 0.12959094
Kr   0.24599765 0.01030018 0.10651854
Kr   0.29049441 0.86091816 0.94067103
Kr   0.81998235 0.53254861 0.93316656
Kr   0.12146851 0.33201882 0.96908480
Kr   0.10388464 0.99039143 0.33222482
Kr   0.30573866 0.07308711 0.16590641
Kr   0.56455266 0.81144792 0.04526192
Kr   0.86450851 0.62405825 0.01662743
Kr   0.55172157 0.15660682 0.98547673
Kr   0.54415834 0.87922305 0.97130668
Kr   0.01726015 0.77296937 0.26053560
Kr   0.09267216 0.23588876 0.16469982
Kr   0.82310182 0.54836667 0.88621253
Kr   0.94459975 0.57223368 0.72354329
Kr   0.17532372 0.87575042 0.86974692
Kr   0.71827543 0.16911419 0.03665391
Kr   0.05459094 0.84287822 0.93761039
Kr   0.00828429 0.78512359 0.16937904
Kr   0.78465277 0.59142143 0.23060624
Kr   0.08674220 0.63325483 0.03424073
Kr   0.45222190 0.16687757 0.92610359
Kr   0.60475278 0.19093585 0.03303413
Kr   0.15659212 0.78466749 0.68154800
Kr   0.31681871 0.84464395 0.82472044
Kr   0.21072690 0.50347263 0.85389936
Kr   0.67249852 0.69821954 0.95057386
Kr   0.30537081 0.75575340 0.81714249
Kr   0.47836962 0.43313715 0.06617128
Kr   0.49342263 0.30459094 0.03547675
Kr   0.35548854 0.67033547 0.11964390
Kr   0.72688347 0.40478224 0.14711596
Kr   0.90896112 0.31430253 0.85990286
Kr   0.35133904 0.02061507 0.39037672
Kr   0.13015009 0.25005886 0.03485874
Kr   0.86175692 0.06246321 0.96303707
Kr   0.18210714 0.05554738 0.43421131
Kr   0.39576221 0.83640379 0.01780459
Kr   0.93310773 0.56134486 0.77121836
Kr   0.48453504 0.06299294 0.76615655
Kr   0.71840793 0.14362860 0.83603591
Kr   0.96340495 0.01656857 0.99696881
Kr   0.19648322 0.24535021 0.45832846
Kr   0.47455856 0.95326656 0.94406998
Kr   0.08933196 0.08728664 0.06343437
Kr   0.09679224 0.72464687 0.20029430
Kr   0.93437320 0.97463214 0.93505007
Kr   0.16522954 0.53675693 0.05407593
Kr   0.88981754 0.05272219 0.55822545
Kr   0.33563861 0.09253973 0.49540907
Kr   0.26777518 0.91383165 0.11286051
Kr   0.79495293 0.19838141 0.14832254
Kr   0.10160389 0.49592406 0.44861686
Kr   0.60203063 0.96380222 0.89246619
Kr   0.07692761 0.98488814 0.18094468
Kr   0.97476465 0.19390818 0.83400530
Kr   0.93877280 0.72207177 0.69498235
Kr   0.28157741 0.89792526 0.89997059
Kr   0.03886110 0.83310771 0.17110065
Kr   0.64117128 0.40663627 0.16108005
Kr   0.80846089 0.57099766 0.92550027
Kr   0.30835786 0.01143320 0.89401120
Kr   0.75619483 0.84287822 0.41648030
Kr   0.33856681 0.02423484 0.18346086
Kr   0.81241912 0.79568869 0.91265446
Kr   0.26534727 0.67268980 0.04314302
Kr   0.55885816 0.90414947 0.63384342
Kr   0.17925251 0.00909358 0.71462631
Kr   0.08015009 0.47461745 0.55719543
Kr   0.92861980 0.62243968 0.24390818
Kr   0.30756328 0.80314893 0.85045618
Kr   0.74811655 0.06911419 0.97295469
Kr   0.99184811 0.89149499 0.56437612
Kr   0.26506770 0.73493230 0.16907004
Kr   0.60929960 0.71059448 0.84121543
Kr   0.27592704 0.91945261 0.71917307
Kr   0.13553561 0.63382876 0.95532674
Kr   0.87816364 0.36359623 0.66628897
Kr   0.67654502 0.69565922 0.06319894
Kr   0.83332843 0.20206004 0.81715715
Kr   0.65462035 0.87182170 0.27139494
Kr   0.67254269 0.28493232 0.85762215
Kr   0.04955857 0.05270747 0.62342554
Kr   0.92657447 0.80557686 0.19905826
Kr   0.64477634 0.66159511 0.78312242
Kr   0.08184226 0.74580640 0.15416422
Kr   0.72803122 0.10781343 0.55626839
Kr   0.14785169 0.43051794 0.60351676
Kr   0.08141554 0.38045910 0.53942025
Kr   0.97760451 0.88045907 0.36946732
Kr   0.15912302 0.92485285 0.33741906
Kr   0.68758094 0.00047087 0.37761921
Kr   0.32620659 0.97051209 0.78778690
Kr   0.96776044 0.78113598 0.20460565
Kr   0.94240725 0.05295762 0.24464390
Kr   0.61542088 0.90257508 0.04605651
Kr   0.23271042 0.11521483 0.57036495
Kr   0.99405533 0.15790170 0.86721605
Kr   0.00035315 0.09499706 0.67678046
Kr   0.10799000 0.77357268 0.97208661
Kr   0.00210418 0.83796352 0.20066215
Kr   0.37544143 0.49362862 0.03763979
Kr   0.60016185 0.96932018 0.71979105
Kr   0.01268393 0.55776924 0.84540904
Kr   0.05331077 0.90826958 0.31790760
Kr   0.00888758 0.13359331 0.98530018
Kr   0.80863744 0.20351678 0.66219831
Kr   0.76243377 0.43449089 0.46599472
Kr   0.26237491 0.16565627 0.19620365
Kr   0.78603590 0.92211598 0.39265743
Kr   0.25904945 0.97001171 0.93962622
Kr   0.57916421 0.90014714 0.12020306
Kr   0.04392289 0.80703354 0.61277223
Kr   0.89745444 0.94643909 0.81152153
Kr   0.39233375 0.02884050 0.93065041
Kr   0.92829609 0.06564155 0.19568864
Kr   0.82432312 0.50489992 0.84855795
Kr   0.53839022 0.19860211 0.70637143
Kr   0.99580640 0.47236612 0.53209239
Kr   0.08044438 0.27978224 0.74351090
Kr   0.11366981 0.78466749 0.05978517
Kr   0.60120660 1.00348735 0.53484404
Kr   0.15239848 0.69309890 0.80351675
Kr   0.93422604 0.16542083 0.18019424
Kr   0.23334314 0.75154507 0.79429078
Kr   0.16761330 0.18572690 0.32221895
Kr   0.96030021 0.90222186 0.07076222
Kr   0.53413773 0.46764272 0.84040612
Kr   0.95276636 0.09976457 0.98743385
Kr   0.38203356 0.91200709 0.82270455
Kr   0.40048558 0.39830783 0.00276633
Kr   0.59130371 0.27301356 0.08677163
Kr   0.88755155 0.89810181 0.11030018
Kr   0.39635080 0.11158034 0.49907300
Kr   0.83474106 0.76352268 0.81520015
Kr   0.15002944 0.13384344 0.01970277
Kr   0.98793405 0.76190406 0.34562978
Kr   0.49560034 0.37719247 0.05489994
Kr   0.10479695 0.38329899 0.35498822
Kr   0.32989994 0.08955268 0.23243083
Kr   0.06670100 0.01784874 0.77388167
Kr   0.66658330 0.14913185 0.42444083
Kr   0.54552680 0.04866097 0.68098879
Kr   0.07806062 0.25151560 0.00319305
Kr   0.19365804 0.87713361 0.51160979
Kr   0.94596827 0.29211301 0.44720423
Kr   0.61156565 0.87391114 0.08505003
Kr   0.93861091 0.45466453 0.82661855
Kr   0.91425836 0.76349324 0.78555036
Kr   0.25429663 0.21968806 0.91440558
Kr   0.66612715 0.73497647 0.84326071
Kr   0.03169512 0.90231019 0.22157151
Kr   0.20384049 0.96147740 0.92794293
Kr   0.96556801 0.56973225 0.39939672
Kr   0.94499707 0.04493820 0.79153913
Kr   0.32379341 0.12410241 0.34501177
Kr   0.85796058 0.14174515 0.82645673
Kr   0.19948499 0.04139199 0.94390821
Kr   0.19114184 0.07725132 0.91625959
Kr   0.58434379 0.90038258 0.47224841
Kr   0.07374927 0.19467333 0.36809888
Kr   0.34891114 0.00464979 0.94733661
Kr   0.22842850 0.69027370 0.50779867
Kr   0.99638021 0.66103590 0.31249264
Kr   0.81955558 0.48235723 0.20590053
Kr   0.90229547 0.03939082 0.76483226
Kr   0.93346089 0.67823720 0.29679224
Kr   0.74482048 0.49711597 0.01443496
Kr   0.29348147 0.96995294 0.88343143
Kr   0.13407888 0.11768688 0.54205418
Kr   0.97048271 0.56625962 0.87617713
Kr   0.03271042 0.15453207 0.26927602
Kr   0.44966158 0.77127725 0.94920546
Kr   0.01358152 0.92856091 0.99926436
Kr   0.72716302 0.36115363 0.86465573
Kr   0.79977930 0.99846971 0.36131549
Kr   0.98166567 0.60891700 0.93301946
Kr   0.95604765 0.13229841 0.34524721
Kr   0.21205121 0.08675691 0.53635961
Kr   0.00753384 0.24120072 0.90048558
Kr   0.44997057 0.19233373 0.26334608
Kr   0.79459977 0.47201294 0.11346380
Kr   0.36849618 0.85575342 0.59040612
Kr   0.79944086 0.95937312 0.81047678
Kr   0.09804297 0.72082108 0.80950558
Kr   0.09855798 0.57538259 0.72929662
Kr   0.03510889 0.83371103 0.42002648
Kr   0.08416715 0.86109477 0.17076221
Kr   0.32048264 0.30075043 0.12829606
Kr   0.48091522 0.92068863 0.14371690
Kr   0.04583579 0.39139202 0.17369041
Kr   0.02076221 0.64732200 0.13633020
Kr   0.67049736 0.86973220 0.85072100
Kr   0.80414951 0.83756626 0.46152148
Kr   0.90039730 0.26787817 0.77270454
Kr   0.30097118 0.49429074 0.08705121
Kr   0.55454677 0.81795174 0.67935550
Kr   0.99511474 0.41052091 0.81431723
Kr   0.16752502 0.69685113 0.21462625
Kr   0.82591236 0.34696880 0.06855503
Kr   0.38978812 0.10576810 0.87001175
Kr   0.99117130 0.24677752 0.04153914
Kr   0.86584753 0.69311363 0.36040318
Kr   0.97439671 0.41723073 0.11717186
Kr   0.71486169 0.49804297 0.05763685
Kr   0.30891702 0.15469393 0.06327251
Kr   0.44991171 0.31277224 0.82470572
Kr   0.29593879 0.58429956 0.85462040
Kr   0.98933196 0.72011477 0.59510010
Kr   0.15357564 0.81434667 0.77841377
Kr   0.56059444 0.49327543 0.11099176
Kr   0.80132431 0.12504415 0.22113007
Kr   0.45238376 0.51010889 0.90217775
Kr   0.96628898 0.19536492 0.19816068
Kr   0.08521189 0.72467631 0.66078579
Kr   0.20678341 0.02061507 0.86012357
Kr   0.00460565 0.79835200 0.94149500
Kr   0.71533251 0.60476750 0.19271630
Kr   0.38756624 0.89298117 0.77806062
Kr   0.96253681 0.85052973 0.10045616
Kr   0.12929665 0.49643907 -.00195703
Kr   0.00966745 0.34829313 0.03502060
Kr   0.08094467 0.24198057 0.94655687
Kr   0.71530312 0.00619482 0.08644791
Kr   0.37210125 0.06091819 0.38962626
Kr   0.08843438 0.33597705 0.00058858
Kr   0.26809886 0.62638319 0.73977345
Kr   0.03341671 0.87842852 0.17577988
Kr   0.92872280 0.67769277 0.98409355
Kr   0.06515598 0.11908476 0.39869040
Kr   0.34174517 0.08385815 0.05141260
Kr   0.81886405 0.21640670 0.37517658
Kr   0.98368156 0.09458505 0.31711301
Kr   0.99554145 0.29384932 0.89412892
Kr   0.80606240 0.20195705 0.99785173
Kr   0.72251326 0.85079461 0.71708363
Kr   0.87934077 0.90217775 0.36602414
Kr   0.23753679 0.59278989 0.86452323
Kr   0.46084464 0.91469979 0.31131548
Kr   0.88597703 0.26776046 0.65107417
Kr   0.79145086 0.99358451 0.27021778
Kr   0.97193938 0.52176279 0.54974985
Kr   0.33911124 0.62271923 0.87545615
Kr   0.82179224 0.81467044 0.86190408
Kr   0.61218363 0.97010010 0.99164212
Kr   0.66508245 0.28866979 0.15222190
Kr   0.77326369 0.15982932 0.57516187
Kr   0.05921130 0.42163035 0.88416719
Kr   0.67567688 0.53827256 0.07881106
Kr   0.15806356 0.89564449 0.95022076
Kr   0.99427605 0.58173925 0.30550322
Kr   0.05429665 0.00050029 0.22813420
Kr   0.94370222 0.87068868 0.32149795
Kr   0.68391705 0.92722189 0.75122136
Kr   -.00659211 0.27735433 0.74842554
Kr   0.41764271 0.79361385 0.86471450
Kr   0.29392290 0.12970865 0.92043853
Kr   0.88347560 0.39889640 0.36303711
Kr   0.85504711 0.33035609 0.93527079
Kr   0.94997054 0.36531782 0.45460567
Kr   1.00030911 0.54050916 0.33388758
Kr   0.78685993 0.74851382 0.09214244
Kr   0.00361978 0.05763685 0.94920546
Kr   0.26530313 0.89933783 0.35534137
Kr   0.12561801 0.28001767 0.32701591
Kr   0.65110362 0.82027662 0.01568570
Kr   0.82179224 0.48025310 0.74995583
Kr   0.74173045 0.90085346 0.40629783
Kr   0.32402885 0.92089462 0.88705122
Kr   0.02338140 0.48148912 0.73896414
Kr   0.45560622 0.81587696 0.95098585
Kr   0.23544732 0.15984403 0.52951735
Kr   0.11746615 0.31596527 0.41246322
Kr   0.22598587 0.04292231 0.90952033
Kr   0.35510594 0.55351681 0.97424954
Kr   0.03972925 0.87004119 0.30195704
Kr   0.09938199 0.98131257 0.41240436
Kr   0.86870217 0.76016772 0.72382289
Kr   0.51311064 0.10339906 0.02057092
Kr   0.68680108 0.74885225 0.04089170
Kr   0.96190411 0.56781930 0.92316067
Kr   0.28718364 0.10641554 0.75781339
Kr   0.38546202 0.97861981 0.89081818
Kr   0.12291053 0.25476751 0.74459976
Kr   0.78194523 0.80283993 0.00695998
Kr   0.21879047 0.08035609 0.04461448
Kr   0.96381694 0.01842260 0.94273102
Kr   0.84249562 0.00435550 0.47488227
Kr   0.79139203 0.31038848 0.07822248
Kr   0.89536494 0.03958211 0.93175393
Kr   0.76653916 0.86462623 0.78219545
Kr   0.49704239 0.11019717 0.93768394
Kr   0.16852561 0.95167750 0.58599180
Kr   0.21293408 0.20160389 0.07157151
Kr   0.45395821 0.75868160 0.88413769
Kr   0.68531489 0.73631549 0.99542379
Kr   0.72193938 0.55918187 0.05050029
Kr   -.00567981 0.50469393 0.44638023
Kr   0.12140966 0.77639788 0.56556797
Kr   0.25999117 0.08875810 0.32783991
Kr   0.28178340 0.84037668 0.66980577
Kr   0.50470865 0.90154505 0.27723661
Kr   0.04404061 0.48727196 0.37108594
Kr   0.56430250 0.00871101 0.98841959
Kr   0.62723660 0.96670097 0.21108006
Kr   0.85910827 0.83016479 0.52271920
Kr   0.78783107 0.41755447 1.00354612
Kr   0.10874043 0.03379929 0.63733077
Kr   0.09490877 0.56937903 0.94948500
Kr   0.79526192 0.37719247 0.12020306
Kr   0.44604179 0.12844321 0.78643322
Kr   0.53522664 -.00423779 0.91984993
Kr   0.26238966 0.79529136 0.80537087
Kr   0.13796352 0.83560914 0.67455852
Kr   0.48038551 0.62130666 0.16773102
Kr   0.11141849 0.10360506 0.29876399
Kr   0.93376988 0.45684227 0.07588287
Kr   0.65587115 0.06989405 0.95620954
Kr   0.78349030 0.05879930 0.18353443
Kr   0.68522662 0.07188052 0.23404944
Kr   0.22030607 0.83856678 0.23360801
Kr   0.92641258 0.83045912 0.06375810
Kr   0.23001766 0.77498525 0.14312832
Kr   0.10039730 0.47635376 0.18063568
Kr   0.76633316 0.00944673 0.23475575
Kr   0.42245439 0.90033847 0.94153917
Kr   0.03640377 0.62280756 0.69289291
Kr   0.75882870 0.13010594 0.54143620
Kr   0.12274868 0.51571512 0.61587697
Kr   0.20585638 0.33120954 0.43805182
Kr   0.76377279 0.77454388 0.86940849
Kr   0.87548560 0.55092704 0.45260450
Kr   0.05217775 0.63899350 0.51169807
Kr   0.84289289 0.33135667 0.75882870
Kr   0.29086229 0.01567098 0.08035609
Kr   0.96066809 0.79582107 0.02301354
Kr   0.58474100 0.07419070 0.15036786
Kr   0.91567099 0.38891995 0.25876987
Kr   0.02610359 0.30944675 0.21830489
Kr   0.96027076 0.27037963 0.09434962
Kr   0.92082107 0.08009123 0.31216893
Kr   0.28868452 0.82217485 0.13175398
Kr   0.04844026 0.07329311 0.12436727
Kr   0.12048263 0.93422604 0.44458506
Kr   0.01868746 0.81219834 0.98824316
Kr   0.49533546 0.98656559 0.25927016
Kr   0.15057386 0.91524428 0.15025015
Kr   0.30100060 0.93808120 0.15007357
Kr   0.66436142 0.96043265 0.78625661
Kr   0.33956739 0.56834906 0.08418187
Kr   0.51954091 0.05512066 0.92369038
Kr   0.96274281 0.91034436 0.98827255
Kr   0.83120954 0.04045027 0.82071811
Kr   0.80747497 0.13098882 0.91302240
Kr   0.00990288 0.35456151 0.19221601
Kr   0.05085345 0.67339611 0.71349323
Kr   0.81930548 0.25376692 0.00999117
Kr   0.90439969 0.55322248 0.73478520
Kr   0.98129785 0.79951441 0.06942319
Kr   0.64234841 0.19022955 0.97717774
Kr   0.96670097 0.51007950 0.70784283
Kr   0.80044144 0.22736904 0.20298706
Kr   0.93610948 0.83893466 0.42613301
Kr   0.52320480 0.70392883 0.11130077
Kr   0.58170986 0.95369339 0.24248087
Kr   1.00117719 0.71247792 0.32192466
Kr   0.76942319 0.94979393 0.44808710
Kr   0.22479400 0.62660390 0.16074161
Kr   0.73166567 0.87632430 0.44668925
Kr   0.15603296 0.90868163 0.09882284
Kr   0.90821069 0.04474691 0.04682166
Kr   0.25485578 0.11175691 0.02825191
Kr   0.24748382 0.97143906 0.58974397
Kr   0.96801066 0.12296940 0.13530017
Kr   0.19414362 0.20832843 0.82373452
Kr   0.24546792 0.07008535 0.66881990
Kr   0.33456445 0.94381988 0.74819010
Kr   -.00022072 0.98446143 0.01425839
Kr   0.50066221 0.79318714 0.58740431
Kr   0.04605651 0.94340789 0.49947029
Kr   0.72233665 0.09486463 0.38788995
Kr   0.26386109 0.33600646 0.03198941
Kr   0.56286049 0.16662744 0.11692172
Kr   0.26115361 0.98713946 0.31743672
Kr   0.02355797 0.75959390 0.30879930
Kr   0.89103884 0.09760153 0.94430554
Kr   0.40957916 0.93219543 0.71052086
Kr   0.90791643 0.27928191 0.69462919
Kr   0.62898761 0.01034432 0.29711595
Kr   0.71524429 0.73656565 0.10987346
Kr   0.13329901 0.80419368 0.29064158
Kr   0.78106242 0.13487346 0.16837846
Kr   0.61188936 0.03821366 0.95947617
Kr   0.87502944 0.21952619 0.35247207
Kr   0.04766039 0.46075633 0.41019720
Kr   0.41531783 0.90862274 0.55743086
Kr   0.81806946 0.26593584 0.13106239
Kr   0.96171284 0.64305472 0.97001171
Kr   0.39798412 0.23955269 0.17582402
Kr   0.22217481 0.09230430 0.87580931
Kr   0.77801651 0.89451152 0.56846672
Kr   0.15721013 0.33833137 0.44941142
Kr   0.92243969 0.87105650 0.68519723
Kr   0.84974986 0.19398175 0.41753972
Kr   0.93927312 0.73306358 0.62994409
Kr   0.12789877 0.84520304 0.01567098
Kr   0.38168040 0.94072986 0.95509118
Kr   0.91084462 0.28635964 0.50467926
Kr   0.02923779 0.53179812 0.24184816
Kr   0.30041203 0.33584461 0.17941436
Kr   0.57249856 0.16128606 0.71675986
Kr   0.41589171 0.13119483 0.12444085
Kr   0.26471454 0.87984109 0.25977045
Kr   0.04022955 0.96899641 0.98527074
Kr   0.21356681 0.06896704 0.23297529
Kr   0.05866686 0.86171281 0.79930842
Kr   0.04024426 0.42251325 0.74811655
Kr   0.67327839 0.24457034 0.99273109
Kr   0.89527661 0.07114479 0.13947912
Kr   0.06546498 0.03871395 0.53950858
Kr   0.03625662 1.00083876 0.13437316
Kr   0.80912298 0.51350796 0.02341083
Kr   0.86063862 0.29014125 0.07451443
Kr   0.91652441 0.49165684 0.57395530
Kr   0.66636258 0.97282225 0.64994115
Kr   0.83674222 0.73276931 0.73329902
Kr   0.45123604 0.00254561 0.85064745
Kr   0.67273402 0.77377868 0.88635963
Kr   0.48050323 0.02931136 0.36761332
Kr   0.89003825 0.20604768 0.45975575
Kr   0.91383165 0.91381699 0.55751914
Kr   0.39414361 0.44626251 0.03076810
Kr   0.08965568 0.96346378 0.85054445
Kr   0.29929370 0.01150677 0.16539140
Kr   0.01555327 0.08755150 0.62176281
Kr   0.82527953 0.79704237 0.56486171
Kr   0.60351676 0.78219545 0.06790759
Kr   0.07223367 0.35448793 0.09192172
Kr   0.31462625 0.52644205 0.15005887
Kr   0.34436435 0.91287524 0.96851087
Kr   0.97804594 0.00560624 0.47245443
Kr   0.36356682 0.88747793 0.01552384
Kr   0.15145674 0.03026780 0.26293409
Kr   0.88003236 0.79792529 0.19643909
Kr   0.72373456 0.71302241 0.17760447
Kr   0.88075340 0.58441728 0.31237492
Kr   0.22885522 0.60029429 0.93581522
Kr   0.69801354 0.78388757 0.85102999
Kr   0.32655975 0.18229841 0.59848440
Kr   0.61555326 0.19621837 0.92076224
Kr   0.11172748 0.15462038 0.18821366
Kr   1.00389934 0.78653622 0.56549442
Kr   0.05773985 0.53471160 0.79015601
Kr   0.14602707 0.57527959 0.69009709
Kr   0.32221895 0.66979110 0.97557390
Kr   0.57817835 0.90473807 0.82402885
Kr   0.67354321 0.51453793 0.96979105
Kr   0.08165097 0.84323132 0.50912297
Kr   0.17205709 0.40987346 0.94511485
Kr   0.41920248 0.62895823 0.98147434
Kr   0.05868158 0.29548264 0.70092702
Kr   0.31976163 0.41559741 0.98794878
Kr   0.24899943 0.16362566 0.00406121
Kr   0.02308711 0.88418192 0.75849032
Kr   0.28513831 0.19270159 0.06650971
Kr   0.13050325 0.60504711 0.29916126
Kr   0.20473808 0.38079754 0.03727192
Kr   0.99511474 0.40576810 0.27866393
Kr   0.91559738 0.00191289 0.59106827
Kr   0.26517069 0.92881107 0.28110653
Kr   0.20338434 0.69180399 0.73881692
Kr   0.02526486 0.94115657 0.38497648
Kr   0.73712480 0.86600941 0.58229846
Kr   0.77907592 0.04649794 0.30001470
Kr   0.19821954 0.68896407 0.86912894
Kr   0.23069453 0.70912302 0.69171572
Kr   -.00075044 0.28160682 0.11362567
Kr   0.50829899 0.63410830 0.01883461
Kr   0.96905535 0.65987349 0.25120661
Kr   0.12060036 0.31418481 0.29159799
Kr   0.02099765 0.74966156 0.82426423
Kr   0.17775162 0.42910537 0.04997057
Kr   0.96375811 0.69199532 0.16833431
Kr   0.06558269 0.21771631 0.87383759
Kr   0.89533550 0.19306946 0.81066805
Kr   0.87279278 0.34967628 0.27304298
Kr   0.08481459 0.45706299 0.27455857
Kr   0.49437904 0.54695410 0.80104470
Kr   0.49217188 0.16063862 0.40987346
Kr   0.02480871 0.98131257 0.34002355
Kr   0.05233961 0.31695116 0.27695704
Kr   0.02152737 0.80344325 0.89888173
Kr   0.77819306 0.50557685 0.94299585
Kr   0.77349913 0.10272219 0.66047680
Kr   0.76984990 0.21318422 0.49074459
Kr   0.97642732 0.77241027 0.97211599
Kr   0.13538846 0.38909653 0.56415540
Kr   0.22736904 0.04623308 0.13169511
Kr   0.52127719 0.18528546 0.51846677
Kr   0.95656276 0.64111245 0.84630662
Kr   0.93491757 0.82177752 0.88608003
Kr   0.09470277 0.51874638 0.01165391
Kr   0.86078578 0.28621247 0.19261330
Kr   0.94643909 0.23955269 0.48271042
Kr   0.47199824 0.54162741 0.18528546
Kr   0.50523835 0.60645968 0.05512066
Kr   0.12847263 0.88477051 0.64152443
Kr   0.16909947 0.59324604 0.43706590
Kr   0.13815480 0.33816952 0.49496764
Kr   0.68997937 0.89267218 0.78875810
Kr   0.23232783 0.31717187 0.01218364
Kr   0.98992056 0.82688349 0.86945266
Kr   0.21044733 0.59058273 0.28925839
Kr   0.99173045 0.85410535 0.73129785
Kr   1.00317836 0.93696290 0.18996468
Kr   0.88865513 0.28881696 0.01600942
Kr   0.97018832 0.74037671 0.86228669
Kr   0.78272516 0.90412009 0.70414948
Kr   0.75219244 0.85965276 0.20306063
Kr   0.51483226 0.43563864 0.20064744
Kr   0.31431726 0.15487051 0.44813126
Kr   0.85826957 0.30746028 0.38691878
Kr   0.14454091 0.41215423 0.75467920
Kr   0.28796351 0.07396998 0.91472930
Kr   0.92332256 1.00282526 0.80972630
Kr   0.09636550 0.63543260 0.69299591
Kr   0.27491173 0.24792527 0.87449974
Kr   0.91773105 0.60251617 0.74012655
Kr   0.73791933 0.96584755 0.30311948
Kr   0.82504416 0.97835493 0.96172750
Kr   0.49808708 0.19916128 0.96871692
Kr   0.79574746 0.73547679 0.89359921
Kr   0.19480577 0.10183932 0.47345495
Kr   0.07307240 0.08909652 0.52370512
Kr   0.37002647 0.12454385 0.07857563
Kr   0.48344615 0.38557976 0.15357564
Kr   0.18349029 0.65208948 0.58092993
Kr   0.70052975 0.74470276 0.94524717
Kr   0.72801650 0.88148910 0.03647734
Kr   0.01340494 0.30286935 0.31547970
Kr   0.23971455 0.86623013 0.90713656
Kr   0.88160688 0.20197175 0.15849029
Kr   0.75732785 -.00542966 0.81324309
Kr   0.91006476 0.84780753 0.10678340
Kr   0.83094472 0.42595646 0.28827250
Kr   0.78059155 0.45738670 0.03223955
Kr   0.85285461 0.88762510 0.98078281
Kr   0.64858741 0.38415244 0.91122717
Kr   0.80565035 0.91116834 0.66212481
Kr   0.05157446 0.47157153 0.78369629
Kr   0.03821366 0.09874927 0.74487936
Kr   0.62764859 0.90111834 0.74507064
Kr   0.65726900 0.71633315 0.89192176
Kr   0.72057092 0.87776631 0.37301356
Kr   0.71845204 0.31353739 0.02919364
Kr   0.96911418 0.80601823 0.15064745
Kr   0.52898765 0.11995292 0.11339023
Kr   0.97886997 0.38868454 0.98515296
Kr   0.02483814 0.73999411 0.09543850
Kr   0.89733672 0.55569452 0.80863744
Kr   0.94752795 0.76764274 0.74156857
Kr   0.14432019 0.91724545 0.03962625
Kr   0.29170099 0.25876987 0.91444969
Kr   0.18597704 0.39289290 0.78132725
Kr   0.73643321 0.95481169 0.53362274
Kr   0.96403766 0.05918187 0.66191882
Kr   0.62817836 0.22263096 0.59539437
Kr   0.76144791 0.54433489 0.79539436
Kr   0.11531784 0.52937025 0.80981463
Kr   0.80457622 0.65946150 0.09804297
Kr   0.61992353 0.88279867 0.51199234
Kr   0.58814013 0.09892584 0.06552384
Kr   0.74543852 0.12355798 0.48206300
Kr   0.88859624 0.38326958 0.99830788
Kr   0.63106239 0.96449381 0.03634491
Kr   0.42573574 0.91636258 0.60495877
Kr   0.98507947 0.30375221 0.04695409
Kr   0.44112715 0.08087110 0.86912894
Kr   0.59688050 0.10366392 0.82903177
Kr   0.99368745 0.66689229 0.85150087
Kr   0.53318131 0.89951444 0.43218070
Kr   0.35448793 0.42517659 0.03090053
Kr   0.93521190 0.71798116 0.04792525
Kr   0.00169217 0.55672455 0.68225431
Kr   0.73085636 0.20687169 0.57894349
Kr   0.98190117 0.52561802 0.85516483
Kr   0.06241907 0.70566511 0.74738079
Kr   0.91324306 0.38409361 0.30907887
Kr   0.05129488 0.59309888 0.48343143
Kr   0.34302533 0.00183932 0.11171278
Kr   0.69692463 0.33312243 0.94754261
Kr   0.19033256 0.81433195 0.95125079
Kr   0.62049735 0.83478516 0.54583579
Kr   0.39660093 0.97211599 0.03091525
Kr   0.48349032 0.04305474 0.87396997
Kr   0.10548852 0.47580928 0.13715421
Kr   0.06162449 0.55595940 0.12040906
Kr   0.24003826 0.11948205 0.73038554
Kr   0.61649501 0.13980283 0.18994997
Kr   0.05635668 0.28881696 0.79170102
Kr   0.52969396 0.05762213 0.13802236
Kr   0.57995886 0.97114480 0.49423194
Kr   0.58615363 0.84929371 0.64115661
Kr   0.78696293 0.00744556 0.93223953
Kr   0.13900824 0.87055618 0.05703355
Kr   0.43169510 0.15837257 0.61333138
Kr   0.93740439 0.75297236 0.32282224
Kr   0.32024720 0.77973813 0.90183938
Kr   0.03374043 0.03028252 0.35929957
Kr   0.27776635 0.13435844 0.64927900
Kr   0.29365805 0.10654797 0.08279870
Kr   0.86712772 0.45622423 0.79072982
Kr   0.08572690 0.62616247 0.54433489
Kr   0.49729255 0.91047674 0.93993527
Kr   0.97573566 0.39922014 0.20086816
Kr   0.15716597 0.18256328 0.02564744
Kr   0.58783108 0.79904360 0.36864331
Kr   0.78403473 0.33972925 0.27499998
Kr   0.69246620 0.93641847 0.13852265
Kr   0.66121250 0.99095058 0.23259270
Kr   0.54199529 0.22591230 0.12149794
Kr   0.40940258 0.22909065 0.89098001
Kr   0.06727487 0.90092707 0.09037670
Kr   0.89002353 0.18922895 0.11290465
Kr   0.98914069 0.56085932 0.57249856
Kr   0.50250149 0.08625662 0.30082402
Kr   0.04342260 0.92523545 0.16939376
Kr   0.52394056 0.25822544 0.17154208
Kr   0.79011184 0.73193055 1.00033844
Kr   0.15984403 0.55348736 0.73190117
Kr   0.17155680 0.30386990 0.31952620
Kr   0.01581813 0.98219544 0.43026781
Kr   0.00459094 0.98447615 0.95128018
Kr   0.34414363 0.84034729 0.06334608
Kr   0.68594766 0.01334609 0.28062093
Kr   0.55921131 0.66624486 0.03251913
Kr   0.88248968 0.95516485 0.56639200
Kr   0.28828722 0.05463508 0.77576518
Kr   0.82473516 0.30982932 0.80170691
Kr   0.92622131 0.49720424 0.15494408
Kr   0.41559741 0.04259859 0.83040023
Kr   0.57001173 0.93805182 0.86856973
Kr   0.97834021 0.92719251 0.24947029
Kr   0.13072395 0.63463807 0.06796645
Kr   0.89527661 0.67545617 0.02508829
Kr   0.36502352 0.32717776 0.89011186
Kr   0.06923190 0.62542677 0.24898469
Kr   0.16032961 0.92208654 0.64426136
Kr   0.16653915 0.05625368 0.78319603
Kr   0.08132725 0.79589468 0.72789878
Kr   0.59224546 0.00542966 0.40214834
Kr   0.41734844 0.10688640 0.74487936
Kr   0.22055621 0.50670987 0.31901118
Kr   0.85270751 0.80459094 0.70803416
Kr   0.03284285 0.96350801 0.83231312
Kr   0.76983523 0.85974103 0.83981758
Kr   0.20070630 0.08728664 0.14902885
Kr   0.55350208 0.89801353 0.73248971
Kr   0.26678929 0.64034730 0.85320777
Kr   0.62064451 0.94028842 0.64356977
Kr   0.73814011 0.76286054 0.92851681
Kr   0.72058564 0.76731902 0.14873455
Kr   0.91005003 0.81256622 0.80113304
Kr   0.91380227 0.61804003 0.36737785
Kr   0.74883753 0.92017365 0.05537081
Kr   0.48877281 0.14393760 0.77332258
Kr   0.22467628 0.94551212 0.39220127
Kr   0.32964981 0.36197764 0.83631545
Kr   0.42669216 0.15572396 0.17666274
Kr   0.26302236 0.87778103 0.86646557
Kr   0.14733666 0.70535612 0.08151854
Kr   0.78044438 0.90183938 -.00354620
Kr   0.28457916 0.28222483 0.04479105
Kr   0.84246618 0.20663626 0.02326368
Kr   0.07747204 0.51680404 0.29386404
Kr   0.41334608 0.83643323 0.78075343
Kr   0.98844916 0.22255740 0.08569746
Kr   0.12310183 0.64192170 0.51085931
Kr   0.07179224 0.18694821 0.01328723
Kr   0.09390818 0.91605359 0.60685700
Kr   0.28113598 0.42633903 0.83122426
Kr   0.15138318 0.75488520 0.94231904
Kr   0.77030605 0.88496172 0.64173043
Kr   -.00145674 0.43497649 0.57801652
Kr   0.95267808 0.07772219 0.94448203
Kr   0.84643906 0.82979697 0.23175398
Kr   0.55737203 0.15626839 0.04383461
Kr   0.69306946 0.79373163 0.08303414
Kr   0.78691876 0.51522952 0.12753090
Kr   0.08360801 0.89945555 0.19939670
Kr   0.12508829 0.72363156 0.03437316
Kr   0.15457623 0.79704237 0.07332254
Kr   0.24621837 0.63447618 0.07794291
Kr   0.01060918 0.91374338 0.82439673
Kr   0.73125368 0.07102708 0.02744261
Kr   0.29820484 0.98334318 0.12728074
Kr   0.02675103 0.08980283 0.91216892
Kr   1.00076520 0.42089465 0.01135962
Kr   0.79025900 0.59108299 0.52629489
Kr   0.55548853 0.91740733 0.58057684
Kr   0.70962334 0.92185110 0.20572396
Kr   0.11886404 0.73213655 0.32160094
Kr   0.66108000 0.24693938 0.26047674
Kr   0.03943496 0.62423486 0.05753385
Kr   0.06942319 0.24661566 0.37394056
Kr   0.15712185 0.44748381 0.56380224
Kr   0.22923779 0.53915536 0.11846674
Kr   0.22903179 0.20790170 0.46183050
Kr   0.29109773 0.85703355 1.00076520
Kr   0.25969687 0.84281933 0.75666571
Kr   0.78702182 0.78628606 0.54414362
Kr   0.44698355 0.88647735 0.26450855
Kr   0.63864040 0.86121249 0.43107709
Kr   0.30977046 0.05270747 0.22594173
Kr   0.18003237 0.44866097 0.97277814
Kr   0.02280753 0.55900532 0.49031782
Kr   0.26655385 0.01041789 0.35126546
Kr   0.01140377 0.55718070 0.89339316
Kr   0.87202770 0.68944967 0.76203650
Kr   0.96943796 0.41970277 0.74723369
Kr   0.65108889 0.03844909 0.23715422
Kr   0.49783698 0.86283112 0.91372865
Kr   0.24936728 0.82976753 0.93878752
Kr   0.97444087 0.89246619 0.85070628
Kr   0.48299003 0.21620071 0.44125959
Kr   0.59117126 0.84792525 0.12898764
Kr   0.40126547 0.21976164 0.83697766
Kr   0.16873161 0.35061800 0.58126837
Kr   0.97369039 0.75404650 0.70753384
Kr   0.30489996 0.03756621 0.72012949
Kr   0.31756917 0.11837846 0.02836963
Kr   0.02704532 0.32972339 0.99368745
Kr   0.85263389 0.30781344 0.61288995
Kr   0.70910835 0.97773689 0.75516480
Kr   0.54898465 0.07519129 0.26562685
Kr   0.19462919 0.34671867 0.73007655
Kr   0.82522076 0.94583577 0.27732491
Kr   0.59381986 0.28070924 0.96040314
Kr   0.06740730 0.63407886 0.36208063
Kr   0.44217187 0.96980572 0.36552384
Kr   0.96474403 0.15757798 0.94951445
Kr   0.39988229 0.87121838 0.90604770
Kr   0.17706004 0.72190994 0.69980872
Kr   0.28557977 0.09749853 0.50160390
Kr   0.89284879 0.89679223 0.03382872
Kr   0.48869926 0.28013539 0.83903766
Kr   0.80997646 0.23816952 0.41625956
Kr   0.67204237 0.86743677 0.56527370
Kr   0.52791345 0.63853741 0.80762213
Kr   0.07133608 0.36063862 0.30113304
Kr   0.73968512 0.83118010 0.92229253
Kr   0.05445851 0.78675687 0.93429959
Kr   0.20183931 0.63312244 0.89365804
Kr   0.76618600 0.40871099 0.88814014
Kr   0.05544438 0.78534436 0.24424663
Kr   0.40943202 0.08354915 0.26940846
Kr   0.73272514 0.29511479 0.84607124
Kr   0.43650678 0.09458505 0.45332551
Kr   0.13668334 0.92776632 0.23396115
Kr   0.83846378 0.72723663 0.86689234
Kr   0.45286936 0.11603885 0.31615657
Kr   0.78518248 0.14025897 0.76656860
Kr   0.75503236 0.13147441 0.36031488
Kr   0.51846677 0.99464393 0.73165095
Kr   0.02703061 0.23852265 0.35342848
Kr   0.09000883 0.95094174 0.22489701
Kr   0.27358741 0.07148322 0.27530900
Kr   0.68453503 0.88188642 0.89611542
Kr   0.00467922 0.11650971 0.26258093
Kr   0.99290758 0.29748380 0.97795761
Kr   0.30419365 0.79939669 0.08376987
Kr   0.47257212 0.98869926 0.40509126
Kr   0.97661865 0.94393766 0.83543265
Kr   0.51266921 0.90101534 0.18072395
Kr   0.09114184 0.36047673 0.48204824
Kr   0.10944673 0.84412891 0.79196584
Kr   0.68605065 0.88741904 0.52653033
Kr   0.75304592 0.84749854 0.34776342
Kr   0.07083579 0.58067983 0.42188051
Kr   0.05825486 0.98914069 0.38582993
Kr   0.17057092 0.32620659 1.00010300
Kr   0.89409947 0.79281932 0.85105950
Kr   0.11280165 0.93229842 0.08908181
Kr   0.04046498 0.76521486 0.78078282
Kr   0.77352858 0.21711302 0.10107416
Kr   0.04638022 0.20609182 0.96793699
Kr   0.94153917 0.55276638 0.50088286
Kr   0.18602119 0.47173336 0.28032666
Kr   0.54248089 0.99036199 0.62062979
Kr   0.96653908 0.32367569 0.86528844
Kr   0.02601530 0.99280459 0.78328425
Kr   0.23530018 0.11419953 0.67344022
Kr   0.82701588 0.77608889 0.28413773
Kr   0.64171571 0.18699235 0.82367569
Kr   0.15077987 0.46983519 0.71428782
Kr   0.79972041 0.18849324 0.89908773
Kr   0.65248674 0.32816362 0.06936434
Kr   0.61375809 0.59462917 0.89502650
Kr   0.91160977 0.22243966 0.99158329
Kr   0.21159506 0.16183050 0.57686871
Kr   0.33843437 0.61770159 0.06052089
Kr   0.70801944 0.74321657 0.89549738
Kr   0.99092120 0.86826074 0.99167156
Kr   0.73075336 0.14149500 0.95938784
Kr   0.85139787 0.95532674 0.82252795
Kr   0.64168632 0.97591227 0.11784873
Kr   0.27254266 0.13643320 0.59208357
Kr   0.03229841 0.89855802 0.86068279
Kr   0.71443498 0.18503532 0.36796644
Kr   0.86930549 0.24429075 0.68911123
Kr   0.05403178 0.24721897 0.66193348
Kr   0.75515008 0.20297234 0.21749559
Kr   0.14015597 0.74092114 0.60348737
Kr   0.08315185 0.64362866 0.84579164
Kr   0.97906125 0.83749264 0.03332843
Kr   0.41130078 0.94874924 0.14524721
Kr   0.20241319 0.83232784 0.06231607
Kr   0.17533845 0.01753973 0.16386110
Kr   0.04587993 0.82616246 0.84992647
Kr   0.12463214 0.36842260 0.88012064
Kr   0.99128896 0.69860214 0.54442322
Kr   0.17728075 0.97010010 0.13900824
Kr   0.88251919 0.15882872 0.87697172
Kr   0.27783990 0.00576810 0.78774279
Kr   0.76574457 0.94833726 0.67966449
Kr   0.84764564 0.47792819 0.89398175
Kr   0.05831372 0.98459393 0.28793409
Kr   0.95738673 0.81804007 0.77638316
Kr   0.03268099 0.29043555 0.51578873
Kr   0.79942614 0.98588878 0.76977634
Kr   0.65838730 0.95247209 0.07432313
Kr   0.09945556 0.46995291 0.87725133
Kr   0.90400237 0.75473809 0.57241029
Kr   0.20242789 0.14963213 0.16381696
Kr   0.59621841 0.31421426 0.13112125
Kr   0.83678633 0.23811065 0.53449088
Kr   0.92196882 0.69102418 0.24314304
Kr   0.38260743 0.16013832 0.71487641
Kr   0.13940553 0.88138610 0.19799884
Kr   0.99873459 0.87779576 0.32268983
Kr   0.16394939 0.28032666 0.19798411
Kr   0.87099767 0.03927310 0.37966451
Kr   0.04498234 0.68696296 0.39914656
Kr   0.01614185 0.06286050 0.86653912
Kr   0.07155680 0.07117422 0.19205415
Kr   0.10400236 0.28824309 0.61262506
Kr   0.90428197 0.01792231 0.34361389
Kr   0.15207475 0.24548265 0.29514420
Kr   0.87199825 0.78269571 0.78675687
Kr   0.89805770 0.08241612 1.00363445
Kr   0.63869923 0.76955563 0.99976456
Kr   0.55077988 0.79549736 0.85233963
Kr   0.20058858 0.79904360 0.37408772
Kr   0.82647145 0.86645085 0.36870217
Kr   0.17828135 0.05635668 0.49714538
Kr   0.16290465 0.01831960 0.07753091
Kr   0.96085936 0.12850206 0.50927019
Kr   0.12268982 0.16690701 0.78034139
Kr   0.03379929 0.81205124 0.49916127
Kr   0.24354033 0.99430543 0.83266628
Kr   0.22541201 0.95487046 0.27052680
Kr   0.57249856 0.97183633 0.36075634
Kr   0.22107123 0.91044736 0.29896998
Kr   1.00032377 0.36322835 0.55317837
Kr   0.09411418 0.43337256 0.68143028
Kr   0.06219836 0.56141847 0.90148616
Kr   0.78474104 0.96262509 0.51362562
Kr   0.01581813 0.94284868 0.93628609
Kr   0.94239259 0.38725722 0.49237791
Kr   0.85023546 0.95509118 0.36861390
Kr   0.02567687 0.17351383 0.74913186
Kr   0.28522661 0.40173632 0.09243673
Kr   0.95793110 0.13109183 0.04233373
Kr   0.57869333 0.11752502 0.02155680
Kr   0.30509123 0.64281934 0.90894645
Kr   0.27332255 0.32186583 0.87679523
Kr   0.83743376 0.98134202 0.11802531
Kr   0.73647732 0.92416126 0.91093296
Kr   0.66365510 0.38221014 0.00151560
Kr   0.50715125 0.04390818 0.40850499
Kr   0.49548265 0.18028252 0.73906714
Kr   0.32767802 0.03351972 0.27686876
Kr   0.16099176 0.85994709 0.61609769
Kr   0.45865217 0.71568573 0.11784873
Kr   0.19137728 0.04748381 0.61755449
Kr   0.06110948 0.05338435 0.89384931
Kr   0.78294587 0.69128901 0.98972929
Kr   0.93131256 0.48300472 0.99390817
Kr   0.87944376 0.58811063 0.75863743
Kr   0.38522661 0.09298116 0.12525015
Kr   0.49997059 0.84693938 0.57052678
Kr   0.07735433 0.87753093 0.84446734
Kr   0.54492348 0.19223073 0.85904944
Kr   0.37292525 0.84604180 0.30417895
Kr   0.80163330 0.58457917 0.16046204
Kr   0.78006184 0.37037963 0.85386992
Kr   0.17264567 0.36820191 0.68449092
Kr   0.48006180 0.77973813 0.14359918
Kr   0.50178051 0.81324309 0.08116539
Kr   0.26540613 0.11481754 0.88434374
Kr   0.87897295 0.87588292 0.64857268
Kr   0.65875518 0.11668628 0.98144495
Kr   0.07391112 0.45773986 0.01110948
Kr   0.83590347 0.55738670 0.05185403
Kr   0.16737787 0.64000881 0.03914067
Kr   0.60370809 0.82916421 0.80500293
Kr   0.49873456 0.87451440 0.52461743
Kr   0.73918486 0.31057975 0.07185109
Kr   0.84243673 0.45281050 0.02233667
Kr   0.03250442 0.82658917 0.28310770
Kr   0.14405532 0.45694527 0.66712773
Kr   0.78706592 0.88918483 0.22700118
Kr   0.14983813 0.96693641 0.99658620
Kr   0.08674220 0.28675693 0.03381401
Kr   0.20950559 0.40638611 0.44205415
Kr   0.95713651 0.27057093 0.91353738
Kr   0.08811066 0.02914950 0.37155679
Kr   0.00054444 0.34046498 0.66333139
Kr   0.58541793 0.06621542 0.42486757
Kr   0.73066509 0.06250736 0.19074456
Kr   0.03919953 0.68705124 0.10267805
Kr   0.16933490 0.77307236 0.57513243
Kr   0.10504708 0.60519427 0.91452324
Kr   0.15376692 0.46864334 0.05269276
Kr   0.35375223 0.13615362 0.44791055
Kr   0.31238964 0.17282225 0.88502061
Kr   0.48572689 0.18871395 0.78647739
Kr   0.78081226 0.18843438 0.79857272
Kr   0.13354915 0.80878460 0.83371103
Kr   0.69361389 0.38722777 0.96172750
Kr   0.13310771 0.75776929 0.76216894
Kr   0.05844614 0.61238962 0.19938199
Kr   0.34699824 0.48075339 0.15088287
Kr   0.83594763 0.91484696 0.88017952
Kr   0.52817833 0.85825485 0.32401413
Kr   0.07327840 0.69638026 0.00553267
Kr   0.92151266 0.20949088 0.16241908
Kr   0.02870806 0.29314303 0.01859918
Kr   0.11861389 0.44451147 0.07881106
Kr   0.00244261 0.03927310 0.63744849
Kr   0.99117130 0.73741913 0.49643907
Kr   0.25282517 0.86876106 0.50225133
Kr   0.02186580 0.47782519 0.94208360
Kr   0.98115069 0.31671572 0.47023252
Kr   0.64601237 0.85949087 0.98123896
Kr   0.55876988 0.93955272 0.44841084
Kr   0.99633604 0.11325780 0.02541201
Kr   0.27675104 0.84932315 0.33306357
Kr   0.03421130 0.85640085 0.47445557
Kr   0.19997057 0.01203649 0.42944378
Kr   0.88665390 0.85226601 0.55001473
Kr   0.13271043 0.65311950 0.81664217
Kr   0.64854330 0.35666570 0.95022076
Kr   0.76873159 0.81849617 0.88175398
Kr   0.50718069 0.09198058 0.47130665
Kr   0.85431135 0.55937314 0.84685105
Kr   0.20225133 0.55504709 0.75876993
Kr   0.99767512 0.71053559 0.38487345
Kr   0.70824015 0.68858153 0.12769277
Kr   0.41808417 0.10666569 0.16522954
Kr   0.43025309 0.99326074 0.91082996
Kr   0.40192762 0.30891702 0.95191294
Kr   0.54153919 0.28978813 0.05364921
Kr   0.74433488 0.82842851 0.04839612
Kr   0.03937611 0.79417306 0.08201884
Kr   0.87575042 0.18388759 0.71546501
Kr   0.17129193 0.52029139 0.33454973
Kr   0.80323720 0.28894937 0.70528251
Kr   0.90492940 0.65326661 0.52738374
Kr   0.44705710 0.03931725 0.39552677
Kr   0.92694229 0.65816659 0.14883755
Kr   0.83163631 0.26250735 0.80977046
Kr   0.36740729 0.94280457 0.86979109
Kr   0.83288699 0.73930252 0.69418776
Kr   0.70851976 0.71909946 0.82117420
Kr   0.10117716 0.68385816 0.04988229
Kr   0.05860801 1.00216305 0.00798999
Kr   0.66565627 0.91330194 0.70890230
Kr   0.04514420 0.53605062 0.99539441
Kr   0.05382578 0.41138905 0.39955854
Kr   0.58140087 0.59361386 0.16765745
Kr   0.22264567 0.84630662 0.53800768
Kr   0.49009711 0.55192757 0.11060919
Kr   0.54047966 0.03643320 0.43881696
Kr   0.29914656 0.87872279 0.43783107
Kr   0.07510301 0.62761921 0.73216599
Kr   0.64134783 0.01322837 0.56291938
Kr   0.24318717 0.94754261 0.90297234
Kr   0.14645380 0.89077395 0.51702476
Kr   0.75044143 0.30441436 0.93338728
Kr   0.51411122 0.13462332 0.29820484
Kr   0.22236611 0.44643909 0.09896998
Kr   0.72683930 0.50944674 0.13816951
Kr   0.97725135 0.71103591 0.01555327
Kr   0.91166866 0.37414655 0.41530314
Kr   0.84902889 0.75815183 0.91355211
Kr   0.01493526 0.98702180 0.07460271
Kr   0.04228958 0.37308711 0.05846086
Kr   0.37632433 0.15035316 0.20297234
Kr   0.01755444 0.57813424 0.79043555
Kr   0.64434963 0.10260448 0.50782818
Kr   0.74380517 0.08830194 0.43466747
Kr   0.91783404 0.94020015 0.46577397
Kr   0.39243674 0.72208655 0.96255153
Kr   0.92460269 0.73134196 0.10309006
Kr   0.71852565 0.93946439 0.34386402
Kr   0.66049147 0.21723072 0.94473225
Kr   0.74377578 0.65410537 0.20894644
Kr   0.16784874 0.17264567 0.07014421
Kr   0.98472625 0.98771340 0.17619188
Kr   0.51449382 0.00798999 0.15575339
Kr   0.70977044 0.87164509 0.48522663
Kr   0.48921427 0.18666863 0.02657446
Kr   0.28122425 0.90501767 0.56478810
Kr   0.10853443 0.92470568 0.75797528
Kr   0.83892000 0.05275162 0.74721891
Kr   0.95884347 0.67448503 0.72224838
Kr   0.94560039 0.58195996 0.97572100
Kr   0.01155091 0.83502060 0.10335492
Kr   0.04913184 0.59471750 0.96249270
Kr   0.72230726 0.81995291 0.49658626
Kr   0.02339612 0.77486759 0.73496175
Kr   0.93990582 0.87626547 0.87339610
Kr   0.50172162 0.82217485 0.02507357
Kr   0.12226310 0.07429370 0.39599767
Kr   0.60595942 0.70086819 0.05847557
Kr   0.29440847 0.93313718 0.79964691
Kr   0.23094468 0.38758093 0.70968217
Kr   0.27586815 0.54919076 0.17224839
Kr   0.56185991 0.31534725 0.09346675
Kr   0.86505300 0.84605652 0.37863451
Kr   0.63974398 0.89281929 0.34374633
Kr   0.27286640 0.63687468 0.79964691
Kr   0.35173631 0.96113890 0.38880226
Kr   0.57232195 0.84954387 0.08630076
Kr   0.27530900 0.44649795 0.87243968
Kr   0.51425838 0.15866686 0.37327841
Kr   0.08154797 0.75173634 0.75950563
Kr   0.05482637 0.18740436 0.79799879
Kr   0.15244260 0.56158036 0.78582990
Kr   0.65150088 0.06461153 0.71849614
Kr   0.76097703 0.03434373 0.43491760
Kr   0.00956445 0.69423193 0.04308417
Kr   0.77193934 0.11514126 0.87998825
Kr   0.67279279 0.75941730 0.09549735
Kr   0.66172749 0.11057975 0.39471748
Kr   0.45907888 0.41027075 0.97600061
Kr   0.29049441 0.98443204 0.03375515
Kr   0.27608889 0.57467628 0.94820487
Kr   0.70834315 0.08409359 0.16322838
Kr   0.53513831 0.81536198 0.36275750
Kr   0.12502943 0.35541496 0.73266625
Kr   0.10338435 0.11503825 0.49461445
Kr   0.50881398 0.90441436 0.03032666
Kr   0.10286934 0.68544734 0.09882284
Kr   0.09564450 0.89165688 0.80020601
Kr   0.21216892 0.07729547 0.82174808
Kr   0.05425250 0.53360802 0.08207770
Kr   0.57632428 0.38500589 0.90379637
Kr   0.98321074 0.74268687 0.54923487
Kr   0.14590937 0.64951444 0.40441436
Kr   0.45495883 0.07510301 0.94942617
Kr   0.12477928 0.94664508 0.66397882
Kr   0.92620659 0.46780458 0.71028548
Kr   0.70166278 0.06474397 0.65843147
Kr   0.59459978 0.18129782 0.22732490
Kr   0.76539141 -.00466451 0.96734840
Kr   0.09195115 0.27070335 0.65623897
Kr   0.07042377 0.29031783 0.98421133
Kr   0.08015009 0.41902590 0.75695997
Kr   0.87501472 0.66898179 0.59621841
Kr   0.17452914 0.19590937 0.56951147
Kr   0.92992944 0.28784579 0.80459094
Kr   0.03861095 0.45826957 0.59243673
Kr   0.01400824 0.43178341 0.19043556
Kr   0.79121542 0.07567687 0.41920248
Kr   0.70195705 0.42373458 0.86646557
Kr   0.20231017 0.90656269 0.91696590
Kr   0.67280751 0.35657740 0.80132431
Kr   0.29037669 0.69480580 0.82610357
Kr   0.27396998 0.93610948 0.52338141
Kr   0.79704237 0.33575633 0.47722188
Kr   0.07151265 0.49852857 0.61930549
Kr   0.66968805 0.82104182 0.53240138
Kr   0.17391112 0.78097415 0.63972926
Kr   0.66849619 0.93219543 0.98081225
Kr   0.70323718 0.96567100 0.83418190
Kr   0.68244559 0.21319894 0.03840494
Kr   0.82820779 0.30378166 0.03291642
Kr   0.55129486 0.96912891 0.99290758
Kr   0.05423779 0.01194820 0.08728664
Kr   0.23248971 0.78936142 0.95557684
Kr   0.62926722 0.27221894 0.23125367
Kr   0.36487642 0.11783402 0.94677758
Kr   0.89617419 0.76433200 0.89448208
Kr   0.72764862 0.13563862 0.76976162
Kr   0.62572098 0.32138023 0.97904658
Kr   0.93844908 0.27679518 0.86802536
Kr   0.11486169 0.03610948 0.81955558
Kr   0.06871689 0.86917305 0.40685698
Kr   0.18366687 0.60542965 0.34504119
Kr   0.91749561 0.32580930 0.99518842
Kr   0.22600059 0.97096825 0.54208356
Kr   0.79293704 0.29598293 0.94696885
Kr   0.23915540 0.81792229 0.30834314
Kr   0.92906123 0.16144791 0.91159505
Kr   0.20398764 0.56595057 0.91369927
Kr   0.77433789 0.19899942 0.69523251
Kr   0.20039730 0.25500295 0.79808712
Kr   0.83313715 0.33384344 0.25591525
Kr   0.69816065 0.98644793 0.13965568
Kr   0.34807241 0.07764862 0.27567688
Kr   0.04320189 0.05319306 0.71287519
Kr   0.07198352 0.15648912 0.58034134
Kr   0.22242495 0.89949971 0.24854328
Kr   0.49432021 0.00818128 0.77115953
Kr   0.81777519 0.38677162 0.64015597
Kr   0.99230427 0.90139788 0.14858741
Kr   0.68674225 0.04720424 0.06559741
Kr   0.38213655 0.59930843 0.05359035
Kr   0.94986761 0.93115067 0.17107123
Kr   0.16230135 0.06005003 0.88612419
Kr   0.10372277 0.48388755 0.66640675
Kr   0.03404944 0.87026197 0.59205413
Kr   0.15264861 0.48385814 0.47263095
Kr   0.97055620 0.78681576 0.88740432
Kr   0.88257802 0.20114774 0.21784875
Kr   0.12012948 0.53115070 0.48627135
Kr   0.08663920 0.55138320 0.21040317
Kr   0.34690994 0.51590645 0.20295763
Kr   0.15647440 0.05697469 0.58900821
Kr   0.45432606 0.89024425 0.35857856
Kr   0.10679812 0.43425545 0.54097998
Kr   0.11720130 0.00434079 0.54351091
Kr   0.56380224 0.34724841 0.79961741
Kr   0.49819010 0.08184226 0.62264568
Kr   0.36781931 0.17539729 0.06796645
Kr   0.30535612 0.53368157 0.80072099
Kr   0.62132132 0.12439671 0.36992347
Kr   0.15960860 0.69367272 0.74886703
Kr   0.64493823 0.99098003 0.16066803
Kr   0.81450856 0.95673925 0.54864627
Kr   0.72051209 0.40517950 0.04103885
Kr   0.90338439 0.01013832 0.12486757
Kr   0.55145675 0.46344909 0.05395821
Kr   0.38050324 0.62525016 0.83765447
Kr   0.13687463 0.86268389 0.97230726
Kr   0.86976165 0.73182756 0.83075339
Kr   0.29773396 0.13075338 0.53709537
Kr   0.95704830 0.97021776 0.03178340
Kr   0.95026487 0.48989111 0.45632723
Kr   0.97158623 0.48949382 0.03850795
Kr   0.50035316 0.73665392 0.80746031
Kr   0.00148617 0.89562982 0.09582108
Kr   0.33262214 0.98318130 0.61702472
Kr   0.98758090 0.15317833 0.23665392
Kr   0.19486463 0.22619188 0.31069747
Kr   0.71876103 0.26272807 0.99349618
Kr   0.92660391 0.39349619 0.07458799
Kr   0.12332254 0.80232489 0.52042377
Kr   0.91951150 0.24050912 0.60865211
Kr   0.77526486 0.62750149 0.08525603
Kr   0.93079752 0.47432315 0.53353441
Kr   0.12152737 0.06515598 0.22853149
Kr   0.95229554 0.69944084 0.83157742
Kr   0.13122426 0.22329313 0.11237493
Kr   0.73980284 0.16989405 0.99168622
Kr   0.82680988 0.24839613 0.74261332
Kr   0.34701297 0.06655385 0.80450267
Kr   0.24021484 0.04483519 0.30473807
Kr   0.04746910 0.17366098 0.41478810
Kr   0.58185697 0.15757798 0.44474691
Kr   0.91168338 0.34923485 0.22795762
Kr   0.75645971 0.09434962 0.77809006
Kr   0.09462920 0.18961154 0.96052092
Kr   0.70559150 0.17920835 0.68372571
Kr   0.38740435 0.36193350 0.12048263
Kr   0.60460567 0.20587111 0.16240436
Kr   0.29773396 0.19671866 0.53917009
Kr   0.81889349 0.86450851 0.94896996
Kr   0.12560330 0.35058859 0.54426134
Kr   0.33284286 0.87660390 0.29036197
Kr   0.07132137 0.54623312 0.45987347
Kr   0.52377874 0.99345201 0.31059447
Kr   0.65022069 0.99140674 0.41213951
Kr   0.60779870 0.21959977 0.36609769
Kr   0.75657743 0.15793113 0.68141550
Kr   0.95339906 0.10398764 0.45590052
Kr   0.93471158 0.26149204 0.54604179
Kr   0.06511183 0.74255449 0.93733078
Kr   0.81883460 0.57530898 0.72675103
Kr   0.09331960 0.57157153 0.32251322
Kr   0.49816069 0.42195410 0.02155680
Kr   0.09673337 0.83268100 0.05169217
Kr   0.85824013 0.88048857 0.06932019
Kr   0.41986462 0.52314597 0.16898176
Kr   0.11168335 0.16602413 0.47295466
Kr   0.06358152 0.98384345 0.53156269
Kr   0.21081518 0.71701002 0.41936433
Kr   0.22548559 0.32223368 0.12367569
Kr   0.09477634 0.84848440 0.36739260
Kr   0.21881990 0.20097116 0.71074158
Kr   0.14690995 0.69143617 0.16633314
Kr   0.30267805 0.91013831 0.48509416
Kr   0.03965568 0.77892882 0.13206299
Kr   0.95300174 0.89630663 0.81477344
Kr   0.72048265 0.70310479 0.88029724
Kr   0.04334903 0.47089463 0.17504415
Kr   0.45036787 0.98862565 0.07853149
Kr   0.81714249 0.35339907 0.95885819
Kr   0.98855209 0.71115363 0.96450847
Kr   0.00882872 0.43251911 0.38038552
Kr   0.68671274 0.04017069 0.99829316
Kr   0.03409358 0.45045617 0.54153919
Kr   0.16867276 0.44855797 0.23744848
Kr   0.50974101 0.59292227 0.86158037
Kr   0.17675103 0.05772514 0.30763686
Kr   0.17160094 0.94986761 0.30729842
Kr   0.56105065 0.86303711 0.16300766
Kr   0.17242496 0.35779870 0.52935547
Kr   0.49710125 0.77348441 0.84267217
Kr   0.97243965 0.69571805 0.07731019
Kr   0.17170393 0.74436438 0.05681283
Kr   0.10027958 0.77360213 0.80853444
Kr   0.72021776 0.20563568 0.18306357
Kr   0.98788995 0.80946147 0.60288405
Kr   0.42111537 0.28243086 0.90497351
Kr   0.82073277 0.02707475 0.13635963
Kr   0.12463214 0.22273396 0.33460858
Kr   0.84782225 0.82795763 0.17414656
Kr   0.94820487 0.12155680 0.77296937
Kr   0.92086524 0.76228666 0.95236903
Kr   0.33319598 0.09268687 0.13182755
Kr   0.00501766 0.97099763 0.27008533
Kr   0.96105069 0.16623014 0.00133902
Kr   0.26518539 0.00734255 0.39957330
Kr   0.04317246 0.60384047 0.29495293
Kr   0.37311655 0.15119188 0.51572984
Kr   0.91852564 0.69526196 0.18971454
Kr   0.58009124 0.07472043 0.56653911
Kr   0.51780456 0.90626842 0.37785465
Kr   0.35791641 0.08563861 0.00105945
Kr   0.16166864 0.07673632 0.17176281
Kr   0.03500589 0.09585050 0.95859337
Kr   0.00410536 0.85082400 0.77935553
Kr   0.15050030 0.20682755 0.49654207
Kr   0.73525602 0.94168633 0.39186287
Kr   0.59237784 0.54690993 -.00242790
Kr   0.41052091 0.98241615 0.33749264
Kr   0.35700411 0.01974691 0.22872278
Kr   0.22916423 0.62873751 0.45473808
Kr   0.53338730 0.08927310 0.58070928
Kr   0.65956450 0.92976755 0.82679516
Kr   0.67661864 0.84796935 0.08369630
Kr   0.39443791 0.69988227 0.05985874
Kr   0.62145382 0.74620366 0.12832548
Kr   0.91536200 0.92972332 0.00638611
Kr   0.04542378 0.62277812 0.81590647
Kr   0.70316362 0.06065333 0.95473814
Kr   0.05810771 0.32280752 0.04115656
Kr   0.07831077 0.02207181 0.26449382
Kr   0.58368158 0.94552684 0.11030018
Kr   0.85216302 0.08530018 0.59540910
Kr   -.00020600 0.53340203 0.03331371
Kr   0.96280164 0.17014420 0.39808711
Kr   0.98660982 0.25849029 0.95475286
Kr   0.04661566 0.36077103 0.22454385
Kr   0.07029135 0.49757209 0.90597409
Kr   0.17174809 0.94183350 0.82089460
Kr   0.07582401 0.25793114 0.11211006
Kr   0.36764273 0.92382288 0.12935551
Kr   0.93772811 0.79173046 0.70576811
Kr   0.98965573 0.65098590 0.17864920
Kr   0.51670104 0.35395822 0.95751911
Kr   0.12703061 0.42548558 0.34459978
Kr   0.86851090 0.01412596 0.42651561
Kr   0.26799586 0.75232488 0.12544143
Kr   -.00341377 0.91834903 0.90350205
Kr   0.54899943 0.99070048 0.11530312
Kr   0.94121546 0.43138611 0.33591819
Kr   0.19374631 0.28881696 0.09821954
Kr   0.23905239 0.30082402 0.16306651
Kr   0.89735138 0.36896706 0.51467043
Kr   0.93120956 0.01670100 0.17963508
Kr   0.96106541 0.40154502 0.38425544
Kr   0.53864038 0.11739258 0.62498528
Kr   0.43605062 0.17610359 0.37015891
Kr   0.00489994 0.60838729 0.99774867
Kr   0.39782223 0.80385524 0.72728074
Kr   0.48421133 0.97427899 0.62377870
Kr   0.91789293 0.08915538 0.08814008
Kr   0.53023839 0.21545027 0.19030312
Kr   0.98219544 0.50328135 0.22809006
Kr   0.51923192 0.88878751 0.59137726
Kr   0.80687171 0.62205714 0.73266625
Kr   0.49720424 0.34658626 0.85176575
Kr   0.17326368 0.09880812 0.84383464
Kr   0.62964982 0.02966451 0.72945851
Kr   0.05317834 0.96793699 0.93238676
Kr   0.94153917 0.28855211 0.04483519
Kr   0.52488232 0.10804885 0.96927607
Kr   0.90210420 0.56774575 0.38599178
Kr   0.03965568 0.38790464 0.27373457
Kr   0.57286638 0.18596232 0.06776045
Kr   0.58837551 0.88193059 0.41467041
Kr   0.23702177 0.14639494 0.39380518
Kr   0.95782816 0.28247499 0.25213361
Kr   0.89514422 0.84362864 0.46193349
Kr   0.98062092 0.31602412 0.76734841
Kr   0.73040026 0.19389346 0.72238082
Kr   0.47036493 0.67778105 0.87551504
Kr   0.36024132 0.09630665 0.35882872
Kr   0.28223956 0.77894348 0.16742201
Kr   0.14958800 0.38340199 0.81053561
Kr   0.54146558 0.33057681 0.01939376
Kr   0.75581229 0.44449678 0.97764868
Kr   0.40579751 0.20258975 0.63853741
Kr   0.12738375 0.48335785 0.29877871
Kr   0.97398472 0.83594763 0.39405534
Kr   0.45091230 0.57695705 0.85794586
Kr   0.22396998 0.14223073 0.33315188
Kr   0.04142142 0.58007652 0.34118599
Kr   0.87686872 0.68113601 0.16402297
Kr   0.94864631 0.96684819 0.98188639
Kr   0.32452914 0.84886700 0.15336964
Kr   0.15376692 0.34442317 0.63596237
Kr   0.86943793 0.57267511 0.11266922
Kr   0.01112419 0.83855206 0.57104176
Kr   0.32152736 0.43325487 0.06671572
Kr   0.75223666 0.79496765 0.58778691
Kr   0.91158038 0.71106535 0.34721896
Kr   0.94841087 0.13329901 0.66462624
Kr   0.02201295 0.13475575 0.89081818
Kr   0.90809304 0.87789875 0.98805183
Kr   0.31801060 0.31328723 0.92040908
Kr   0.61889350 0.21009417 0.64479107
Kr   0.16784874 0.47731018 0.92401415
Kr   0.08553562 0.47698647 0.31923190
Kr   0.06801060 0.91600943 -.00423779
Kr   0.82809007 0.79449677 0.21191879
Kr   0.65628314 0.02925250 0.94339317
Kr   0.10653325 0.14331959 0.99034727
Kr   0.99351084 0.19434962 0.24686581
Kr   0.91567099 0.28134197 0.21998234
Kr   0.32597116 0.22246911 0.89308417
Kr   0.91646558 0.58568281 0.90304589
Kr   0.48559445 0.04427605 0.44782224
Kr   0.26318422 0.21250737 0.11717186
Kr   0.28303415 0.19471748 0.85922605
Kr   0.48864040 0.07600059 0.71600944
Kr   0.07644203 0.36266920 0.41250736
Kr   0.29292232 0.24958800 0.18711007
Kr   0.85104477 0.82267511 0.82245439
Kr   0.20278105 0.13964096 0.80662155
Kr   0.89791054 0.83138609 0.15183932
Kr   0.55737203 0.85953504 0.60069162
Kr   0.01998234 0.81883460 0.65291351
Kr   0.83092999 0.06240436 0.10540023
Kr   0.85670984 0.07242496 0.24861683
Kr   0.68549144 0.78777224 0.00504709
Kr   0.02385227 0.15107417 0.38394645
Kr   0.92856091 0.78179812 0.05166274
Kr   0.09607121 0.03081224 0.18827252
Kr   0.20281048 0.86561215 0.94658625
Kr   0.52804595 0.14492348 0.74692470
Kr   0.10748970 0.38824308 0.84059739
Kr   0.91319895 0.30975574 0.07941436
Kr   0.91152149 0.61436141 0.94688052
Kr   0.81368452 0.48173925 0.64071512
Kr   0.87320483 0.83151853 0.60718071
Kr   0.53777224 0.82158625 0.28268099
Kr   0.30918187 0.89398175 0.12680990
Kr   0.29059741 0.87020308 0.72133607
Kr   0.19913185 0.78931725 0.28429958
Kr   0.05600353 0.93684518 0.88540322
Kr   0.51849616 0.99511474 0.42085052
Kr   0.05856386 0.21648028 0.14261331
Kr   0.18788993 0.46854031 0.76322836
Kr   0.39537966 0.83849323 0.15570924
Kr   0.75857860 0.85334021 1.00094175
Kr   0.54242200 0.88894939 0.07202766
Kr   0.48203355 0.46383166 0.02675103
Kr   0.58256328 0.85400236 0.20872574
Kr   0.56386107 0.88668334 0.30079457
Kr   0.84726316 0.85150087 0.47252795
Kr   0.45276636 0.88943493 0.56680399
Kr   0.76412594 0.85100061 0.48143023
Kr   0.48466745 0.13831665 0.04527663
Kr   0.94911712 0.68942028 0.87942904
Kr   0.99389344 0.61422896 0.87467629
Kr   0.35513538 0.83769864 0.20011772
Kr   0.63235724 0.84995586 0.67171872
Kr   0.11455268 0.05606239 0.77163035
Kr   -.00444379 0.13722779 0.69998527
Kr   0.97283697 0.43144497 0.06359623
Kr   0.51277220 0.98300475 0.96499413
Kr   0.08871394 0.07257210 0.43531489
Kr   0.52795762 0.02202766 0.81770158
Kr   0.10194232 0.80195701 0.91698062
Kr   0.71929073 0.15865214 0.87751621
Kr   0.98472625 0.45033842 0.32152736
Kr   0.88054740 0.85578281 0.20061801
Kr   0.42327842 0.13145968 0.40615067
Kr   0.11770159 0.21330194 0.38697764
Kr   0.26499411 0.35669512 0.92925251
Kr   0.45594469 0.81802529 0.87845796
Kr   0.14326075 0.64851385 0.36236021
Kr   0.61492056 0.35871100 0.78416717
Kr   0.17176281 0.69502652 0.03126839
Kr   0.11946734 0.52719247 0.67289585
Kr   0.97101235 0.99511474 0.81378752
Kr   0.00542966 0.47588286 0.68356389
Kr   0.81449383 0.32838434 0.90208948
Kr   0.06623013 0.44323131 0.45797530
Kr   0.44420248 0.45994702 0.10729841
Kr   0.30562097 0.39155388 0.86077106
Kr   0.32380813 0.99539441 0.41671571
Kr   0.39270160 0.16422896 0.02508829
Kr   0.64349616 0.26215422 0.95918185
Kr   0.79089171 0.87036496 0.32913479
Kr   0.23921424 0.67628014 0.18372573
Kr   0.90894645 0.31032962 0.36851090
Kr   0.38285756 0.18880224 0.78574157
Kr   0.48184225 0.86234552 0.73989111
Kr   0.00694526 0.40372279 0.34046498
Kr   0.82430845 0.34557092 0.01634785
Kr   0.03515303 0.21037374 0.10540023
Kr   0.72352856 0.25506181 0.81075633
Kr   0.06678929 0.55906415 0.03045909
Kr   0.01556798 0.19876398 0.17057092
Kr   0.55899054 0.59150976 0.03824309
Kr   0.00531195 0.27984110 0.80076516
Kr   0.98303413 0.54869044 0.81325781
Kr   0.87733960 0.69705713 0.87495589
Kr   0.90843141 0.39685109 0.60553271
Kr   0.24270159 0.48843437 0.09205415
Kr   0.80462039 0.49489406 0.89543849
Kr   0.88022369 0.76940852 0.01539141
Kr   0.72123307 0.16290465 0.55157447
Kr   0.83175397 0.55810773 0.45897585
Kr   0.31262508 -.00114773 0.31784874
Kr   0.13447617 0.02689818 0.74349618
Kr   0.83547676 0.77550030 0.49529135
Kr   0.63602120 0.05747499 0.81702477
Kr   0.08964097 0.64685106 0.78253382
Kr   0.97354329 0.23615362 0.15179518
Kr   0.14495291 0.51428783 0.43363744
Kr   0.82904649 0.88491762 0.83265162
Kr   0.78178340 0.06437610 0.07396998
Kr   0.45782813 0.86665684 0.16015303
Kr   0.90696001 0.64224541 0.89333433
Kr   0.02823720 0.33191583 0.78419656
Kr   0.90019125 0.11074162 0.40256032
Kr   0.87731022 0.73254859 0.07008535
Kr   0.16855504 0.54080337 0.85435551
Kr   0.61288995 0.23365214 0.00903473
Kr   0.25853443 0.20668040 0.23443203
Kr   0.11494997 0.12319011 0.42336670
Kr   0.60066217 0.79142141 0.12229253
Kr   0.17641260 0.79289287 0.23059152
Kr   0.53660977 0.82107121 0.16243377
Kr   0.88090056 0.97866398 0.31406710
Kr   0.94586521 0.84714538 0.16976163
Kr   0.50036788 0.41571513 0.96402293
Kr   0.66394943 0.63210714 0.82900238
Kr   0.87683934 0.52561802 0.53972924
Kr   0.35854915 0.93634492 0.17989995
Kr   0.03293113 0.26862863 0.59636551
Kr   0.60495877 0.92997354 0.57470572
Kr   0.39768982 0.13162154 0.78179812
Kr   0.56559741 0.37226310 0.94923490
Kr   0.21614185 0.44936728 0.15260448
Kr   0.02719247 0.26917303 0.18668334
Kr   0.52664804 0.31399354 0.83120954
Kr   0.20077989 0.95650381 0.62319016
Kr   0.90083873 0.49103883 0.09486463
Kr   0.88013536 0.22856092 0.55757803
Kr   0.95329612 0.78934669 0.93065041
Kr   0.26418483 0.20372279 0.49839610
Kr   0.97632426 0.14331959 0.29874927
Kr   0.73237199 0.46185994 0.16936433
Kr   0.85744554 0.79908770 0.88734549
Kr   0.40345794 0.87741321 0.98138613
Kr   0.08790465 0.18750736 0.52305770
Kr   0.19056799 0.10388464 0.27433783
Kr   0.22898765 0.99685115 0.88696295
Kr   0.96698064 0.89058268 0.18705121
Kr   0.84320188 0.10906416 0.70875514
Kr   0.45931432 0.97944385 0.58012068
Kr   0.09056798 0.68791938 0.26188937
Kr   0.02201295 0.87226307 0.64902890
Kr   0.96920246 0.31494996 0.09365803
Kr   0.33971453 0.92632431 0.83627135
Kr   0.78437316 0.36486167 0.90376693
Kr   0.26015303 0.06224250 0.21852560
Kr   0.15363449 0.60663629 0.39065626
Kr   0.14545321 0.15475281 0.96472931
Kr   0.59234846 0.48475575 0.03394644
Kr   0.73575634 0.09227487 0.51512653
Kr   0.94689524 0.61088872 0.12785463
Kr   0.94123012 0.41309592 0.02895821
Kr   0.64006770 0.01533255 0.80487055
Kr   0.73755151 0.97341084 0.99480581
Kr   0.00413478 0.50075042 0.15706298
Kr   0.62697178 0.64273101 0.07577987
Kr   0.87051207 0.44043553 0.89395231
Kr   0.62806064 0.51353741 0.00875515
Kr   0.12458800 0.40837258 0.94336373
Kr   0.18693350 0.44052383 0.51380223
Kr   0.95707768 0.83017951 0.97271931
Kr   0.84789586 0.78509420 0.07208653
Kr   0.65345794 0.70019126 0.10725427
Kr   0.14543849 0.02413184 0.31854033
Kr   0.17667747 0.23802237 0.03159212
Kr   0.19187757 0.57199824 0.95890230
Kr   0.25723955 0.03671277 0.25445849
Kr   0.97090942 0.69352561 0.92217481
Kr   0.89148027 0.93125367 0.32879636
Kr   0.02975280 0.38778692 0.96998233
Kr   0.48603588 0.31269863 0.98463804
Kr   0.52133608 0.95551789 0.35846087
Kr   0.47146851 0.99187756 0.99773395
Kr   0.49574754 0.47831079 0.12171867
Kr   0.86893761 0.31556797 0.66627425
Kr   0.25419363 0.05953502 0.87189525
Kr   0.53543264 0.74173045 0.18530019
Kr   0.09398176 0.00813714 0.69660091
Kr   0.19280459 0.87794292 0.16673043
Kr   0.24562980 0.40797529 0.90030903
Kr   0.98343146 0.88936144 0.95105952
Kr   0.76514125 0.86545032 0.73346090
Kr   0.91979104 0.78531486 0.62136555
Kr   0.58347559 0.84455562 0.37878165
Kr   0.44323131 0.82113010 0.82756037
Kr   0.03276928 0.28747794 0.35644498
Kr   0.03559447 0.94374633 0.75626838
Kr   0.34380519 0.98344612 0.04914656
Kr   0.87130666 0.10126545 0.06692172
Kr   0.59321660 0.61761332 0.82560331
Kr   0.43159211 0.17892878 0.87370509
Kr   0.08880223 0.42580929 0.96987939
Kr   0.86194819 0.57241029 0.90585637
Kr   0.09955856 0.31262508 0.15672454
Kr   0.96065336 0.76359624 0.59011185
Kr   0.50640082 0.85563564 0.05169217
Kr   0.62881106 0.53544730 0.90790170
Kr   0.92733961 0.12629488 0.96163917
Kr   0.25116247 0.65407592 0.99692464
Kr   0.91645086 0.48363745 0.66378754
Kr   0.41128606 0.94123012 0.49134782
Kr   0.02235138 0.46755445 0.03741907
Kr   0.17597115 0.05846086 0.70450264
Kr   0.08619776 0.32054150 0.25428194
Kr   0.08144496 0.97695702 0.05606239
Kr   0.47345495 0.97248375 0.81999707
Kr   0.26915833 0.24660096 0.08893467
Kr   0.59713072 0.75335497 0.96246320
Kr   0.18994997 0.50659215 0.56415540
Kr   0.50135374 0.88193059 0.09009712
Kr   0.22313125 0.87320483 0.08853738
Kr   0.52035022 0.15142731 0.01668628
Kr   0.80395824 0.30453208 0.75232488
Kr   0.93063563 0.86820185 0.77939963
Kr   0.14114185 0.97027665 0.25329608
Kr   0.92419070 0.49948499 0.27086523
Kr   0.05438494 0.99758679 0.46671572
Kr   0.14576222 0.49846968 0.22873750
Kr   0.00759270 0.19770454 0.03793408
Kr   0.13516775 0.52307242 0.19186285
Kr   0.22750148 0.11593585 0.83780164
Kr   0.05925544 0.87273401 0.72513241
Kr   0.43560919 0.57341087 0.17817834
Kr   0.48525605 0.08017952 0.57585341
Kr   0.10000000 0.19496763 0.13950853
Kr   0.81166863 0.54601234 0.82317543
Kr   0.88475573 0.71118307 0.92685401
Kr   0.30166274 0.45575339 0.92227787
Kr   0.65306062 0.08429959 0.89106828
Kr   0.31883460 0.93379927 0.99819010
Kr   0.37293994 0.42101237 0.78424072
Kr   0.95772511 0.23746322 0.24327548
Kr   0.22856092 0.67654502 0.13402002
Kr   0.96140373 0.86811364 0.65519422
Kr   0.26521483 0.21315479 0.17330782
Kr   0.22270454 0.99816066 0.14022954
Kr   0.82466155 0.58834612 0.39596823
Kr   0.59929371 0.05569453 0.30192760
Kr   0.95888758 0.84414363 0.60721010
Kr   0.42145380 0.33170983 0.89545321
Kr   0.17326368 0.24181873 0.23602121
Kr   0.26876104 0.14380518 0.24233373
Kr   0.37214538 0.27395529 0.15997645
Kr   0.81374335 0.13141553 0.86187464
Kr   0.98659509 0.31973219 0.40718073
Kr   0.86556798 0.39688054 0.25198647
Kr   0.85500294 0.93269575 0.06417010
Kr   0.83512360 0.75044143 0.09365803
Kr   0.72819304 0.01914361 0.57118893
Kr   0.86634785 0.93896413 0.00987346
Kr   0.78156275 0.93181282 0.87831074
Kr   0.47402886 0.48346084 0.17015892
Kr   0.12123308 0.79743969 0.10971159
Kr   0.55019128 0.73883164 0.99368745
Kr   0.95216304 0.36792231 0.11112420
Kr   0.28256327 0.53009129 0.96756911
Kr   0.35751915 0.20984402 0.37636843
Kr   0.46542084 0.28703651 0.93665391
Kr   0.09483520 0.22605945 0.27945852
Kr   0.30588582 0.06787816 0.09068570
Kr   0.73331368 0.90563571 0.54738081
Kr   0.96284574 0.21595056 0.97750145
Kr   0.80685699 0.99927902 0.43697765
Kr   0.02947322 0.24642436 0.50098592
Kr   0.16019718 0.33840492 0.77586818
Kr   0.21202178 0.03125368 0.38568276
Kr   0.90359038 0.07027663 0.72989994
Kr   0.46915835 0.17427899 0.13530017
Kr   0.67163038 0.20850500 0.28434372
Kr   0.30441436 0.03300471 0.12739848
Kr   0.31608301 0.85615069 0.55887288
Kr   0.34020013 0.90338439 0.79842556
Kr   0.11603885 0.61472929 0.42923778
Kr   0.19404061 0.78269571 0.08915538
Kr   0.85619485 0.59627724 0.18072395
Kr   0.21411124 0.08859623 0.96387577
Kr   0.88502061 0.48780167 0.33078280
Kr   0.63546205 0.80447322 0.16837846
Kr   0.31389055 0.69392294 0.93132722
Kr   0.37161565 0.94848442 0.64093584
Kr   0.09766039 0.53459388 0.54562980
Kr   0.22851677 0.78062093 0.64055330
Kr   0.68357861 0.86143321 0.68279868
Kr   0.93376988 0.23566805 0.94582111
Kr   0.24242201 0.01166863 0.98209238
Kr   0.04484991 0.98763984 0.88098884
Kr   0.37014422 0.88176870 0.54304004
Kr   0.38462332 0.08660977 0.77642733
Kr   0.30637139 0.48057681 0.95696002
Kr   0.44024429 0.18187168 0.81621546
Kr   0.09649795 0.38931724 0.99193650
Kr   0.76315480 0.06843732 0.48241612
Kr   0.39108297 0.56403768 0.93162155
Kr   0.95693052 0.04779282 0.46929076
Kr   0.00353149 0.19083284 0.36228666
Kr   0.45544437 0.97742796 0.70974106
Kr   0.83518243 0.47049737 0.51808417
Kr   0.68150383 0.79771930 0.14860211
Kr   0.70211887 0.11578870 0.35045615
Kr   0.18454973 0.80206001 0.54318720
Kr   0.03465274 0.68696296 0.97042376
Kr   0.02972337 0.04998529 0.22355798
Kr   0.74467337 0.91778988 0.60660684
Kr   0.93020892 0.82806063 0.27179223
Kr   0.44470277 0.52935547 0.04546792
Kr   0.13104768 0.16940847 0.86656857
Kr   0.79284877 0.77204239 0.97030610
Kr   0.32657447 0.96992350 0.19608594
Kr   0.16255151 0.63977343 0.87386698
Kr   0.88209242 0.21636258 0.85369331
Kr   0.03777222 0.02510300 0.41558269
Kr   0.08737493 0.81700999 0.26564154
Kr   0.73675692 0.92108595 0.28138611
Kr   0.94976455 0.79379046 0.38306358
Kr   0.32816362 0.10506180 0.77538258
Kr   0.10991760 0.59359920 0.03485874
Kr   0.87243968 0.99326074 0.60105944
Kr   0.85379636 0.91603887 0.80804890
Kr   0.34371689 0.43416718 0.89746910
Kr   0.10612125 0.11481754 0.94670391
Kr   0.34926426 0.90875512 0.41884932
Kr   0.30641553 0.06381695 0.66837847
Kr   0.40104473 0.05954973 0.16724545
Kr   0.18547675 0.88584465 0.99139202
Kr   0.05398764 0.67636847 0.92298412
Kr   0.61662740 0.04420247 0.06575927
Kr   0.04487934 0.43406418 0.35670984
Kr   0.43516773 0.21019718 0.32616246
Kr   0.42560330 0.03855209 0.21090348
Kr   0.14346674 0.35464978 0.22875220
Kr   0.30153033 -.00020600 0.49646854
Kr   0.59237784 0.63666868 0.92488229
Kr   0.15248676 0.32560331 0.81965864
Kr   0.33244556 0.03491760 0.46552384
Kr   0.93818420 0.80052972 0.84367275
Kr   0.06881990 0.15743084 0.20011772
Kr   0.20207475 0.24607122 0.37795764
Kr   1.00548851 0.22394055 0.00020600
Kr   0.22586817 0.72110069 0.05512066
Kr   0.84764564 0.51336080 0.43075338
Kr   -.00498823 0.00328134 0.23378457
Kr   0.10030901 0.84583580 0.94349623
Kr   0.05061801 0.21914361 0.24125956
Kr   0.22979693 0.92972332 0.50999117
Kr   0.77252793 0.88684523 0.50821072
Kr   0.19924957 0.98017949 0.09396704
Kr   0.32626545 0.81923193 0.78543258
Kr   0.14671865 0.75303119 0.10344321
Kr   0.91842264 0.91060919 0.65294290
Kr   0.41665685 0.14846969 0.54306948
Kr   0.37594172 0.88485873 0.19577694
Kr   0.63563865 0.74206889 0.07939965
Kr   0.46652442 0.89919072 0.42024720
Kr   0.71234548 0.99002349 0.88425547
Kr   0.21369924 0.23163626 0.10361978
Kr   0.34389347 0.85233963 0.50219250
Kr   0.21358153 0.93543261 0.07829606
Kr   0.19879341 0.56222779 0.81896704
Kr   0.36442026 0.47196883 0.85993236
Kr   0.57985580 0.99698347 0.81609774
Kr   0.65972632 0.11337551 0.32369038
Kr   0.89459980 0.84648323 0.84070039
Kr   0.30718070 0.96365505 0.70269281
Kr   0.13134196 0.01390524 0.58552092
Kr   0.08485875 0.40092701 0.26072690
Kr   0.60899061 0.68432903 0.79249561
Kr   0.96818715 0.76714242 0.46514127
Kr   0.91933495 0.04620365 0.84061211
Kr   0.67750144 0.21856976 0.10560624
Kr   0.14763096 0.68013537 0.85857856
Kr   0.05818128 0.84560037 0.07058564
Kr   0.08811066 0.04078870 0.58968514
Kr   0.03346086 0.82313126 0.70232493
Kr   0.75729841 0.93931723 0.79354036
Kr   0.10879929 0.42694232 0.29623309
Kr   0.52202767 0.19123015 0.43794879
Kr   0.07869335 0.35893172 0.87449974
Kr   0.83510894 0.26035905 0.23079753
Kr   0.13472632 0.96540612 0.94402587
Kr   0.00588582 0.38786051 0.38778692
Kr   0.15722485 0.13849322 0.33035609
Kr   0.16010888 0.30934376 0.55927014
Kr   0.79761624 0.84120071 0.18912596
Kr   0.78263682 0.29298115 0.87594175
Kr   0.58237195 0.26648030 0.87123311
Kr   0.91806942 0.28921425 0.58852261
Kr   0.24033256 0.35666570 0.84601235
Kr   0.19099469 0.36163920 0.20532668
Kr   0.31652442 0.93875813 0.44329017
Kr   0.94118601 0.32422015 0.50180990
Kr   0.83537376 0.34604180 0.66262507
Kr   0.90974104 0.05809300 0.46859920
Kr   0.61200708 0.32942909 0.02111536
Kr   0.40635666 0.06146263 0.87501472
Kr   0.77371985 0.04705709 0.13015009
Kr   0.32854620 0.30484107 0.80885816
Kr   0.02939965 0.88608003 0.13085638
Kr   0.82502943 0.89259857 0.28369629
Kr   0.90962332 0.69186288 0.56119776
Kr   0.93819892 0.60061800 0.60963804
Kr   0.98688936 0.61356682 0.06655385
Kr   0.94549733 0.11097705 0.60126543
Kr   0.51823133 0.17876692 0.91386110
Kr   0.11773103 0.13447617 0.04714538
Kr   0.09240730 0.09570336 0.35191289
Kr   0.35111830 0.22098292 0.93643320
Kr   0.83057678 0.05094173 0.42102709
Kr   0.63082695 0.10779871 0.68140084
Kr   0.53009129 0.71080047 0.94590932
Kr   0.54852855 0.03964097 0.30094174
Kr   0.80937320 0.01861389 0.72271925
Kr   0.71706885 0.06319894 0.58437318
Kr   0.17997351 0.29221600 0.27592704
Kr   0.12295468 0.94045025 0.57010007
Kr   0.85857856 0.68075341 0.54579163
Kr   0.49998528 0.82291055 0.40426722
Kr   0.85725427 0.64031780 0.51427311
Kr   0.92045325 0.19155385 0.68761039
Kr   0.19184814 0.66321367 0.92127723
Kr   0.09857269 0.63143027 0.39074457
Kr   0.88087106 0.99181873 0.20759270
Kr   0.11450854 0.57057095 0.64633608
Kr   0.48535904 0.89552683 0.69465864
Kr   0.76293409 0.14336374 0.11100648
Kr   0.15479694 0.41150677 0.26774573
Kr   0.22449970 0.05743084 0.49165684
Kr   0.74988234 0.66287524 0.10032372
Kr   0.47954679 0.27567688 0.00785756
Kr   0.29318717 0.95027959 0.31043261
Kr   0.62214535 0.45718071 0.97901702
Kr   0.23351972 0.52807534 0.95279574
Kr   0.11970277 0.80500293 0.47767806
Kr   0.09701295 0.83115071 0.55350208
Kr   0.80887288 0.07049735 0.67261624
Kr   0.37501472 0.94573283 0.77411717
Kr   0.86002058 0.56911415 0.41718659
Kr   0.31031489 0.94518834 0.60804892
Kr   0.85962331 0.44689524 0.47396997
Kr   0.23687463 0.94667453 0.12502943
Kr   0.80993229 0.09143614 0.17448498
Kr   0.60846090 0.41624486 0.99676275
Kr   0.27148324 0.11453796 0.69776338
Kr   0.76436138 0.16600941 0.86877578
Kr   0.71246320 0.48831668 0.98509419
Kr   0.40902004 0.50276631 0.07979694
Kr   0.68419659 0.68466747 0.80716598
Kr   0.75999117 0.98062092 0.71930546
Kr   0.79417306 0.10197175 0.12273396
Kr   0.23378457 0.62151265 0.03141554
Kr   0.35392877 0.79092115 0.73677164
Kr   0.02522072 0.89767510 0.96692169
Kr   0.42416129 0.69789582 0.89108300
Kr   0.13799295 0.81690699 0.63819897
Kr   0.41458210 0.04209829 0.98466748
Kr   0.67998827 0.15790170 0.10982931
Kr   0.75114775 0.16121249 0.40487051
Kr   0.84757215 0.63209242 0.58250445
Kr   0.27976751 0.52697176 0.12408769
Kr   0.32985580 0.57720721 0.01814303
Kr   0.11805473 0.32655975 0.59251028
Kr   0.92566216 0.54492348 0.28658035
Kr   0.98658031 0.88393170 0.60788703
Kr   0.34542379 0.95397294 0.23530018
Kr   0.28322542 0.05684226 0.47439674
Kr   0.00768099 0.90369338 0.48582989
Kr   0.35335493 0.88382870 0.46656859
Kr   0.59618890 0.00353149 0.19498235
Kr   0.72964984 0.83599174 0.23750737
Kr   0.26553854 0.95810771 0.68846381
Kr   0.95341378 0.38540319 0.83300471
Kr   0.57636845 0.94457036 0.64231902
Kr   0.44221601 0.05779871 0.14464390
Kr   0.22133608 0.18159211 0.95194232
Kr   0.89277518 0.35869631 0.76336080
Kr   0.60657740 0.87601531 0.95675403
Kr   0.04175986 0.59221601 0.02161566
Kr   0.18700705 0.73713952 0.21784875
Kr   0.25419363 0.09851383 0.80297232
Kr   0.40226603 0.04768982 0.10691583
Kr   0.57124776 0.58793408 0.86018246
Kr   0.90609181 0.40865216 0.84367275
Kr   0.37566218 0.65847558 0.16612713
Kr   0.34829313 0.25916716 0.21851090
Kr   0.89592409 0.84159797 0.31000590
Kr   0.52146852 0.51134491 0.81530315
Kr   0.97268975 0.33984697 0.14537963
Kr   0.38644794 0.07639788 0.32012951
Kr   0.86962920 0.15052971 0.61316955
Kr   0.41468510 0.46327251 0.84043556
Kr   0.04982343 0.20169216 0.05890229
Kr   0.22185108 0.70938790 0.21100648
Kr   0.45310476 0.92558861 0.18050325
Kr   0.73530018 0.94393766 0.73693353
Kr   0.24146557 0.17321955 0.48493233
Kr   0.32473513 0.09702766 0.94586521
Kr   0.02252796 0.14942613 0.44510007
Kr   0.39256918 0.92226309 0.44808710
Kr   0.13044438 0.73608005 0.68708062
Kr   0.12126251 0.29507062 0.99693936
Kr   0.89708650 0.60965276 0.63909650
Kr   0.76368457 0.95806360 0.26293409
Kr   0.06646557 0.75282520 0.84602708
Kr   0.26294881 0.94546789 0.64170104
Kr   0.84130371 0.47664806 0.57391113
Kr   0.11202177 0.14976458 0.13581517
Kr   0.64576226 0.57831073 0.91965866
Kr   0.12889935 0.60816658 0.18403473
Kr   0.75244266 0.14752796 0.22164509
Kr   0.64610064 0.20578282 0.06728958
Kr   0.81244850 0.42878163 0.71564156
Kr   0.95297235 0.30722484 0.30531195
Kr   0.95257503 0.94711590 0.65245736
Kr   0.99997056 0.92154205 0.64105362
Kr   0.64084756 0.71533251 0.99181873
Kr   0.92273396 0.73996466 0.41945264
Kr   0.67889935 0.57517660 0.16884933
Kr   0.73582989 0.62579459 0.11915832
Kr   0.36773100 0.82435256 0.96602416
Kr   0.88918483 0.61419958 0.57217479
Kr   0.44352561 0.07268982 0.01121248
Kr   0.50513536 0.79203945 0.95547378
Kr   0.12467627 0.08221012 0.92004120
Kr   0.68137139 0.24245143 0.82370514
Kr   0.63228375 0.88521188 0.69998527
Kr   0.46808419 0.03281342 0.63515306
Kr   0.35088289 0.07491171 0.45693055
Kr   0.19718952 0.14640965 0.65510595
Kr   0.07767805 0.95267808 0.61868751
Kr   0.90729845 0.76227194 0.68805176
Kr   0.58372569 0.46199235 0.14361389
Kr   0.78821367 0.94267219 0.15473808
Kr   0.31087404 0.90052974 0.07994409
Kr   0.43118009 0.37332255 0.09221601
Kr   0.36528841 0.30612126 0.98506474
Kr   0.03918482 0.65498823 0.01007946
Kr   0.84704238 0.17610359 0.85320777
Kr   0.18746321 0.86995298 0.79158330
Kr   0.92582399 0.77885520 0.14237787
Kr   0.06302237 0.86456740 0.62747204
Kr   0.40229547 0.08775751 0.65372276
Kr   0.04145085 0.36368451 0.63515306
Kr   0.21355209 0.92037964 0.79401118
Kr   0.76574457 0.74467337 0.16602413
Kr   0.81798118 0.77714831 0.76386106
Kr   0.27898762 0.89377576 0.62049735
Kr   0.79045027 0.60158914 0.94994116
Kr   0.01102119 0.65525305 0.54262799
Kr   0.94583577 0.14433490 0.55578279
Kr   0.06018246 0.63949382 0.90491468
Kr   0.91040319 0.84726316 0.62998819
Kr   0.49390823 0.20794585 0.08065038
Kr   0.82323426 0.15185402 0.42029133
Kr   0.01745144 0.37937021 0.50946146
Kr   0.86149210 0.35788700 0.39171574
Kr   0.41340494 0.94770449 0.07985580
Kr   0.65047091 0.93020892 0.23693348
Kr   0.79983813 0.18712479 0.84252501
Kr   0.26942319 0.09014126 0.13587405
Kr   0.99174517 0.26602414 0.46765745
Kr   0.83153331 0.96412599 0.32989994
Kr   0.65286934 0.09913184 0.04732196
Kr   0.09590936 0.21331665 0.66633314
Kr   0.19554149 0.92020303 0.54562980
Kr   0.91856974 0.43750736 0.57399940
Kr   0.63621247 0.09490877 0.20401707
Kr   0.68454975 0.51199234 0.11456739
Kr   0.68756622 0.02934079 0.78234255
Kr   0.84476161 0.01018246 0.78522658
Kr   0.93159211 0.99532074 0.72723663
Kr   0.74667454 0.41598001 0.84105361
Kr   0.16764273 0.09535021 0.41921720
Kr   0.42246911 0.41128606 0.16358152
Kr   0.13366686 0.03952325 0.42735431
Kr   0.94799888 0.92355800 0.94080341
Kr   0.46990877 0.26727486 0.08609476
Kr   0.89280456 0.58622718 0.26706886
Kr   0.06212478 0.35879931 0.76075631
Kr   0.03877281 0.63824308 0.76933491
Kr   0.54306948 0.18964095 0.55987346
Kr   0.31664214 0.24487935 0.11213949
Kr   0.31998235 0.89879340 0.52319014
Kr   0.35651854 0.78454977 0.22433785
Kr   0.17163037 0.83166569 0.83719838
Kr   0.12678047 0.65320778 0.27167451
Kr   0.12807535 0.26689231 0.43278399
Kr   0.23375514 0.87929666 0.59958804
Kr   0.98819894 0.04177457 0.37420541
Kr   0.61734849 0.04693938 0.17427899
Kr   0.84873456 0.54167157 0.79941142
Kr   0.23841965 0.85525310 0.69723368
Kr   0.34690994 0.16436139 0.92710418
Kr   0.25052971 0.25638610 0.95413482
Kr   0.05264862 0.00922601 0.64103884
Kr   0.98741913 0.62470573 0.57286638
Kr   0.16804002 0.69855797 0.59477639
Kr   0.24505591 0.09608594 0.92208654
Kr   0.70819604 0.14964685 0.72146851
Kr   0.42065921 0.00887287 0.17529429
Kr   0.96174222 0.89811653 0.28790465
Kr   0.33566806 0.03307828 0.63366687
Kr   0.42385226 0.62005591 0.15030901
Kr   0.92847264 0.17731018 0.48541787
Kr   0.09000883 0.53110659 0.17004120
Kr   0.56096238 0.99155390 0.23275456
Kr   0.49470276 0.96299297 0.03788994
Kr   0.42714831 0.12188052 0.58375520
Kr   0.50069159 0.93980283 0.79055327
Kr   0.14312832 0.23140082 0.19404061
Kr   0.48743379 0.13057680 0.15719540
Kr   0.99523252 0.69174516 0.46758389
Kr   0.37321955 0.32751617 0.04093584
Kr   0.67570633 0.51892287 0.17470571
Kr   0.56330198 0.19289288 0.90803415
Kr   0.70540023 0.15485580 0.30357563
Kr   0.63713950 0.32196882 0.15816656
Kr   0.01037375 0.16131549 0.32011476
Kr   0.07348441 0.95201588 0.35135373
Kr   0.88619781 0.42660388 0.08221012
Kr   0.66684818 0.93903768 0.02161566
Kr   0.30341378 0.15665098 0.69820482
Kr   0.67388171 0.39092112 0.87810475
Kr   0.62962037 0.44746912 0.79302531
Kr   0.87991464 0.29125959 0.80114776
Kr   0.77753091 0.77285165 0.80542964
Kr   0.63338727 0.16297823 0.37454385
Kr   0.58917010 0.15104474 0.39640966
Kr   0.99390817 0.17439671 0.65754855
Kr   0.19838141 0.94031781 0.35069159
Kr   0.36324310 0.01191878 0.47736907
Kr   0.50448793 0.43413773 0.90279579
Kr   0.06130077 0.80130959 0.80531198
Kr   0.40067688 0.30409065 0.06384639
Kr   0.22998823 0.38176867 0.47283694
Kr   0.74529135 0.26386109 0.89549738
Kr   0.04074456 0.86876106 0.89421719
Kr   0.01110948 0.33984697 0.11281636
