data_subtitutions
_audit_creation_method    igor
_audit_author_name 'sponge bob'
_cell_length_a         67.9599991
_cell_length_b         67.9599991
_cell_length_c         67.9599991
_cell_angle_alpha         90.0000000
_cell_angle_beta         90.0000000
_cell_angle_gamma         90.0000000
_cell_volume     313877.4375000
_symmetry_space_group_name_hall 'p 1'
_symmetry_space_group_name_h-m 'p 1'
_symmetry_int_tables_number 1
_symmetry_equiv_pos_as_xyz 'x,y,z'
loop_
_atom_site_label
_atom_site_fract_x
_atom_site_fract_y
_atom_site_fract_z
_atom_site_charge
Zn_c      0.3661270      0.5288544      0.4143143       0.3536000
Zn_c      0.4911270      0.4038544      0.2892990       0.3536000
Zn_c      0.3667755      0.2795486      0.2892456       0.3536000
Zn_c      0.4917755      0.4045639      0.4142609       0.3536000
Zn_c      0.4290771      0.4037704      0.2265015       0.3536000
Zn_c      0.3662720      0.3416595      0.2263565       0.3536000
Zn_c      0.3040161      0.4044113      0.2271500       0.3536000
Zn_c      0.3669205      0.4666595      0.2270432       0.3536000
Zn_c      0.4912720      0.4667130      0.3513565       0.3536000
Zn_c      0.4919357      0.3416595      0.3520584       0.3536000
Zn_c      0.3040161      0.5287704      0.3515167       0.3536000
Zn_c      0.4290161      0.5294571      0.3521652       0.3536000
Zn_c      0.6161270      0.7788849      0.6643295       0.3536000
Zn_c      0.7411423      0.6538696      0.5393143       0.3536000
Zn_c      0.6167755      0.5295639      0.5392761       0.3536000
Zn_c      0.7417908      0.6545792      0.6642761       0.3536000
Zn_c      0.6790924      0.6537704      0.4765167       0.3536000
Zn_c      0.6162720      0.5916748      0.4763565       0.3536000
Zn_c      0.5540314      0.6544113      0.4771652       0.3536000
Zn_c      0.6169357      0.7166748      0.4770584       0.3536000
Zn_c      0.7412872      0.7167130      0.6013718       0.3536000
Zn_c      0.7419357      0.5916748      0.6020737       0.3536000
Zn_c      0.5540314      0.7787781      0.6015167       0.3536000
Zn_c      0.6790466      0.7794724      0.6021652       0.3536000
Zn_c      0.3661270      0.7788849      0.6643295       0.3536000
Zn_c      0.4911270      0.6538696      0.5393143       0.3536000
Zn_c      0.3667755      0.5295639      0.5392761       0.3536000
Zn_c      0.4917755      0.6545792      0.6642761       0.3536000
Zn_c      0.4290771      0.6537704      0.4765167       0.3536000
Zn_c      0.3662720      0.5916748      0.4763565       0.3536000
Zn_c      0.3040161      0.6544113      0.4771652       0.3536000
Zn_c      0.3669205      0.7166748      0.4770584       0.3536000
Zn_c      0.4912720      0.7167130      0.6013718       0.3536000
Zn_c      0.4919357      0.5916748      0.6020737       0.3536000
Zn_c      0.3040161      0.7787781      0.6015167       0.3536000
Zn_c      0.4290161      0.7794724      0.6021652       0.3536000
Zn_c      0.6161270      0.5288544      0.6643295       0.3536000
Zn_c      0.7411423      0.4038544      0.5393143       0.3536000
Zn_c      0.6167755      0.7795792      0.5392761       0.3536000
Zn_c      0.7417908      0.4045639      0.6642761       0.3536000
Zn_c      0.6790924      0.4037704      0.4765167       0.3536000
Zn_c      0.6162720      0.3416595      0.4763565       0.3536000
Zn_c      0.5540314      0.4044113      0.4771652       0.3536000
Zn_c      0.6169357      0.4666595      0.4770584       0.3536000
Zn_c      0.7412872      0.4667130      0.6013718       0.3536000
Zn_c      0.7419357      0.3416595      0.6020737       0.3536000
Zn_c      0.5540314      0.5287704      0.6015167       0.3536000
Zn_c      0.6790466      0.5294571      0.6021652       0.3536000
Zn_c      0.3661270      0.5288544      0.6643295       0.3536000
Zn_c      0.4911270      0.4038544      0.5393143       0.3536000
Zn_c      0.3667755      0.7795792      0.5392761       0.3536000
Zn_c      0.4917755      0.4045639      0.6642761       0.3536000
Zn_c      0.4290771      0.4037704      0.4765167       0.3536000
Zn_c      0.3662720      0.3416595      0.4763565       0.3536000
Zn_c      0.3040161      0.4044113      0.4771652       0.3536000
Zn_c      0.3669205      0.4666595      0.4770584       0.3536000
Zn_c      0.4912720      0.4667130      0.6013718       0.3536000
Zn_c      0.4919357      0.3416595      0.6020737       0.3536000
Zn_c      0.3040161      0.5287704      0.6015167       0.3536000
Zn_c      0.4290161      0.5294571      0.6021652       0.3536000
Zn_c      0.6161270      0.7788849      0.4143143       0.3536000
Zn_c      0.7411423      0.6538696      0.2892990       0.3536000
Zn_c      0.6167755      0.5295639      0.2892456       0.3536000
Zn_c      0.7417908      0.6545792      0.4142609       0.3536000
Zn_c      0.6790924      0.6537704      0.2265015       0.3536000
Zn_c      0.6162720      0.5916748      0.2263565       0.3536000
Zn_c      0.5540314      0.6544113      0.2271500       0.3536000
Zn_c      0.6169357      0.7166748      0.2270432       0.3536000
Zn_c      0.7412872      0.7167130      0.3513565       0.3536000
Zn_c      0.7419357      0.5916748      0.3520584       0.3536000
Zn_c      0.5540314      0.7787781      0.3515167       0.3536000
Zn_c      0.6790466      0.7794724      0.3521652       0.3536000
Zn_c      0.3661270      0.7788849      0.4143143       0.3536000
Zn_c      0.4911270      0.6538696      0.2892990       0.3536000
Zn_c      0.3667755      0.5295639      0.2892456       0.3536000
Zn_c      0.4917755      0.6545792      0.4142609       0.3536000
Zn_c      0.4290771      0.6537704      0.2265015       0.3536000
Zn_c      0.3662720      0.5916748      0.2263565       0.3536000
Zn_c      0.3040161      0.6544113      0.2271500       0.3536000
Zn_c      0.3669205      0.7166748      0.2270432       0.3536000
Zn_c      0.4912720      0.7167130      0.3513565       0.3536000
Zn_c      0.4919357      0.5916748      0.3520584       0.3536000
Zn_c      0.3040161      0.7787781      0.3515167       0.3536000
Zn_c      0.4290161      0.7794724      0.3521652       0.3536000
Zn_c      0.6161270      0.5288544      0.4143143       0.3536000
Zn_c      0.7411423      0.4038544      0.2892990       0.3536000
Zn_c      0.6167755      0.2795486      0.2892456       0.3536000
Zn_c      0.7417908      0.4045639      0.4142609       0.3536000
Zn_c      0.6790924      0.4037704      0.2265015       0.3536000
Zn_c      0.6162720      0.3416595      0.2263565       0.3536000
Zn_c      0.5540314      0.4044113      0.2271500       0.3536000
Zn_c      0.6169357      0.4666595      0.2270432       0.3536000
Zn_c      0.7412872      0.4667130      0.3513565       0.3536000
Zn_c      0.7419357      0.3416595      0.3520584       0.3536000
Zn_c      0.5540314      0.5287704      0.3515167       0.3536000
Zn_c      0.6790466      0.5294571      0.3521652       0.3536000
H3        0.3735123      0.5064621      0.3780136       0.1381000
H3        0.3975143      0.4962616      0.3806076       0.1381000
H3        0.3907166      0.5079193      0.3582077       0.1381000
H3        0.4707794      0.3974075      0.3297501       0.1381000
H3        0.4588165      0.3767929      0.3191452       0.1381000
H3        0.4675674      0.3754578      0.3438644       0.1381000
H3        0.3721161      0.2991028      0.3300018       0.1381000
H3        0.3928223      0.3121948      0.3209991       0.1381000
H3        0.3933640      0.3021011      0.3451996       0.1381000
H3        0.3599167      0.3822556      0.4561081       0.1381000
H3        0.3392715      0.3717499      0.4440536       0.1381000
H3        0.3379669      0.3964081      0.4529572       0.1381000
H3        0.3729248      0.4281082      0.4556656       0.1381000
H3        0.3951721      0.4353561      0.4439697       0.1381000
H3        0.3930283      0.4112549      0.4539108       0.1381000
H3        0.3751144      0.3752518      0.2507935       0.1381000
H3        0.3999710      0.3753510      0.2590942       0.1381000
H3        0.3899231      0.3968048      0.2481461       0.1381000
H3        0.3599167      0.4309998      0.2497025       0.1381000
H3        0.3357239      0.4305038      0.2597961       0.1381000
H3        0.3447189      0.4097595      0.2467041       0.1381000
H3        0.2629013      0.4276047      0.3444672       0.1381000
H3        0.2738647      0.4375687      0.3229141       0.1381000
H3        0.2655106      0.4127121      0.3229141       0.1381000
H3        0.3445282      0.5084610      0.3451157       0.1381000
H3        0.3340225      0.4964523      0.3244095       0.1381000
H3        0.3586655      0.5053101      0.3231583       0.1381000
H3        0.4686737      0.4306641      0.3588104       0.1381000
H3        0.4586639      0.4327545      0.3829193       0.1381000
H3        0.4704208      0.4105682      0.3757095       0.1381000
H3        0.3376694      0.3031464      0.3603134       0.1381000
H3        0.3376694      0.3115082      0.3852081       0.1381000
H3        0.3591690      0.3006058      0.3752670       0.1381000
H3        0.4841690      0.4256058      0.2502518       0.1381000
H3        0.4626236      0.4365082      0.2602005       0.1381000
H3        0.4626694      0.4281616      0.2353439       0.1381000
H3        0.2484512      0.3815613      0.2528992       0.1381000
H3        0.2723694      0.3712463      0.2557983       0.1381000
H3        0.2658615      0.3828125      0.2332535       0.1381000
H3        0.3457794      0.5224533      0.4548111       0.1381000
H3        0.3338165      0.5018082      0.4442139       0.1381000
H3        0.3426132      0.5005188      0.4689102       0.1381000
H3        0.4837265      0.3803558      0.4482040       0.1381000
H3        0.4590607      0.3714523      0.4494095       0.1381000
H3        0.4694672      0.3834610      0.4701157       0.1381000
H3        0.4848709      0.5072556      0.3311081       0.1381000
H3        0.4642715      0.4967041      0.3190536       0.1381000
H3        0.4629211      0.5213623      0.3279572       0.1381000
H3        0.2479095      0.3031082      0.3306656       0.1381000
H3        0.2701111      0.3104019      0.3188934       0.1381000
H3        0.2680511      0.2862549      0.3289108       0.1381000
H3        0.2500610      0.5002670      0.3758087       0.1381000
H3        0.2749557      0.5003510      0.3841705       0.1381000
H3        0.2649078      0.5218048      0.3731613       0.1381000
H3        0.4849167      0.3059998      0.3747025       0.1381000
H3        0.4607239      0.3055038      0.3848114       0.1381000
H3        0.4697189      0.2847595      0.3717041       0.1381000
H3        0.3879166      0.3026047      0.4694672       0.1381000
H3        0.3989258      0.3125534      0.4479523       0.1381000
H3        0.3905258      0.2876968      0.4479141       0.1381000
H3        0.3864746      0.5074158      0.2323608       0.1381000
H3        0.3995132      0.4983673      0.2530441       0.1381000
H3        0.3894653      0.5225601      0.2536926       0.1381000
H3        0.3436737      0.3056946      0.2338409       0.1381000
H3        0.3336639      0.3076935      0.2579422       0.1381000
H3        0.3454208      0.2855072      0.2506485       0.1381000
H3        0.2683029      0.4270630      0.4701996       0.1381000
H3        0.2678070      0.4372101      0.4460144       0.1381000
H3        0.2471161      0.4241180      0.4550018       0.1381000
H3        0.6235275      0.7564774      0.6280136       0.1381000
H3        0.6475296      0.7462769      0.6306229       0.1381000
H3        0.6407318      0.7579346      0.6082230       0.1381000
H3        0.7207947      0.6474228      0.5797653       0.1381000
H3        0.7088470      0.6268234      0.5691757       0.1381000
H3        0.7175827      0.6254730      0.5938644       0.1381000
H3        0.6221313      0.5491180      0.5800171       0.1381000
H3        0.6428375      0.5622101      0.5710297       0.1381000
H3        0.6433792      0.5521164      0.5952148       0.1381000
H3        0.5145264      0.6475754      0.6287231       0.1381000
H3        0.5245743      0.6233215      0.6280746       0.1381000
H3        0.5114365      0.6324158      0.6074142       0.1381000
H3        0.6099319      0.6322708      0.7061386       0.1381000
H3        0.5892715      0.6217651      0.6940842       0.1381000
H3        0.5879745      0.6464233      0.7029877       0.1381000
H3        0.6229248      0.6781158      0.7056808       0.1381000
H3        0.6451721      0.6853714      0.6939850       0.1381000
H3        0.6430283      0.6612701      0.7039261       0.1381000
H3        0.6251297      0.6252670      0.5008240       0.1381000
H3        0.6499863      0.6253662      0.5091248       0.1381000
H3        0.6399384      0.6468201      0.4981766       0.1381000
H3        0.6099319      0.6810150      0.4997177       0.1381000
H3        0.5857239      0.6805191      0.5098114       0.1381000
H3        0.5947342      0.6597672      0.4967194       0.1381000
H3        0.5129318      0.6776199      0.5944672       0.1381000
H3        0.5238800      0.6875687      0.5729218       0.1381000
H3        0.5155258      0.6627121      0.5729218       0.1381000
H3        0.5945282      0.7584763      0.5951157       0.1381000
H3        0.5840378      0.7464828      0.5744247       0.1381000
H3        0.6086807      0.7553253      0.5731735       0.1381000
H3        0.7186890      0.6806641      0.6088104       0.1381000
H3        0.7086945      0.6827698      0.6329193       0.1381000
H3        0.7204361      0.6605682      0.6257172       0.1381000
H3        0.5876846      0.5531616      0.6103134       0.1381000
H3        0.5876846      0.5615234      0.6352234       0.1381000
H3        0.6091843      0.5506210      0.6252670       0.1381000
H3        0.7341995      0.6756210      0.5002670       0.1381000
H3        0.7126389      0.6865234      0.5102234       0.1381000
H3        0.7126846      0.6781616      0.4853592       0.1381000
H3        0.4984818      0.6315613      0.5029144       0.1381000
H3        0.5223846      0.6212769      0.5058289       0.1381000
H3        0.5158768      0.6328125      0.4832535       0.1381000
H3        0.5957794      0.7724838      0.7048264       0.1381000
H3        0.5838318      0.7518234      0.6942291       0.1381000
H3        0.5926285      0.7505264      0.7189255       0.1381000
H3        0.7337418      0.6303711      0.6982346       0.1381000
H3        0.7090912      0.6214676      0.6994247       0.1381000
H3        0.7194977      0.6334763      0.7201309       0.1381000
H3        0.7348862      0.7572861      0.5811234       0.1381000
H3        0.7142868      0.7467346      0.5690689       0.1381000
H3        0.7129364      0.7713776      0.5779724       0.1381000
H3        0.4979248      0.5531158      0.5806656       0.1381000
H3        0.5201263      0.5604172      0.5689240       0.1381000
H3        0.5180817      0.5362549      0.5789108       0.1381000
H3        0.5000763      0.7502823      0.6258240       0.1381000
H3        0.5249863      0.7503815      0.6341705       0.1381000
H3        0.5149384      0.7718353      0.6231766       0.1381000
H3        0.7349472      0.5560150      0.6247177       0.1381000
H3        0.7107391      0.5555191      0.6348114       0.1381000
H3        0.7197495      0.5347595      0.6217194       0.1381000
H3        0.6379318      0.5526199      0.7194824       0.1381000
H3        0.6489258      0.5625687      0.6979828       0.1381000
H3        0.6405258      0.5377121      0.6979218       0.1381000
H3        0.6364746      0.7574310      0.4823608       0.1381000
H3        0.6495285      0.7483826      0.5030746       0.1381000
H3        0.6394806      0.7725830      0.5037231       0.1381000
H3        0.5936737      0.5557251      0.4838562       0.1381000
H3        0.5836792      0.5577240      0.5079727       0.1381000
H3        0.5954208      0.5355072      0.5006790       0.1381000
H3        0.5183334      0.6770782      0.7202301       0.1381000
H3        0.5178375      0.6872101      0.6960297       0.1381000
H3        0.4971313      0.6741180      0.7050323       0.1381000
H3        0.3735123      0.7564774      0.6280136       0.1381000
H3        0.3975143      0.7462769      0.6306229       0.1381000
H3        0.3907166      0.7579346      0.6082230       0.1381000
H3        0.4707794      0.6474228      0.5797653       0.1381000
H3        0.4588165      0.6268234      0.5691757       0.1381000
H3        0.4675674      0.6254730      0.5938644       0.1381000
H3        0.3721161      0.5491180      0.5800171       0.1381000
H3        0.3928223      0.5622101      0.5710297       0.1381000
H3        0.3933640      0.5521164      0.5952148       0.1381000
H3        0.2645111      0.6475754      0.6287231       0.1381000
H3        0.2745590      0.6233215      0.6280746       0.1381000
H3        0.2614059      0.6324158      0.6074142       0.1381000
H3        0.3599167      0.6322708      0.7061386       0.1381000
H3        0.3392715      0.6217651      0.6940842       0.1381000
H3        0.3379669      0.6464233      0.7029877       0.1381000
H3        0.3729248      0.6781158      0.7056808       0.1381000
H3        0.3951721      0.6853714      0.6939850       0.1381000
H3        0.3930283      0.6612701      0.7039261       0.1381000
H3        0.3751144      0.6252670      0.5008240       0.1381000
H3        0.3999710      0.6253662      0.5091248       0.1381000
H3        0.3899231      0.6468201      0.4981766       0.1381000
H3        0.3599167      0.6810150      0.4997177       0.1381000
H3        0.3357239      0.6805191      0.5098114       0.1381000
H3        0.3447189      0.6597672      0.4967194       0.1381000
H3        0.2629013      0.6776199      0.5944672       0.1381000
H3        0.2738647      0.6875687      0.5729218       0.1381000
H3        0.2655106      0.6627121      0.5729218       0.1381000
H3        0.3445282      0.7584763      0.5951157       0.1381000
H3        0.3340225      0.7464828      0.5744247       0.1381000
H3        0.3586655      0.7553253      0.5731735       0.1381000
H3        0.4686737      0.6806641      0.6088104       0.1381000
H3        0.4586639      0.6827698      0.6329193       0.1381000
H3        0.4704208      0.6605682      0.6257172       0.1381000
H3        0.3376694      0.5531616      0.6103134       0.1381000
H3        0.3376694      0.5615234      0.6352234       0.1381000
H3        0.3591690      0.5506210      0.6252670       0.1381000
H3        0.4841690      0.6756210      0.5002670       0.1381000
H3        0.4626236      0.6865234      0.5102234       0.1381000
H3        0.4626694      0.6781616      0.4853592       0.1381000
H3        0.2484512      0.6315613      0.5029144       0.1381000
H3        0.2723694      0.6212769      0.5058289       0.1381000
H3        0.2658615      0.6328125      0.4832535       0.1381000
H3        0.3457794      0.7724838      0.7048264       0.1381000
H3        0.3338165      0.7518234      0.6942291       0.1381000
H3        0.3426132      0.7505264      0.7189255       0.1381000
H3        0.4837265      0.6303711      0.6982346       0.1381000
H3        0.4590607      0.6214676      0.6994247       0.1381000
H3        0.4694672      0.6334763      0.7201309       0.1381000
H3        0.4848709      0.7572861      0.5811234       0.1381000
H3        0.4642715      0.7467346      0.5690689       0.1381000
H3        0.4629211      0.7713776      0.5779724       0.1381000
H3        0.2479095      0.5531158      0.5806656       0.1381000
H3        0.2701111      0.5604172      0.5689240       0.1381000
H3        0.2680511      0.5362549      0.5789108       0.1381000
H3        0.2500610      0.7502823      0.6258240       0.1381000
H3        0.2749557      0.7503815      0.6341705       0.1381000
H3        0.2649078      0.7718353      0.6231766       0.1381000
H3        0.4849167      0.5560150      0.6247177       0.1381000
H3        0.4607239      0.5555191      0.6348114       0.1381000
H3        0.4697189      0.5347595      0.6217194       0.1381000
H3        0.3879166      0.5526199      0.7194824       0.1381000
H3        0.3989258      0.5625687      0.6979828       0.1381000
H3        0.3905258      0.5377121      0.6979218       0.1381000
H3        0.3864746      0.7574310      0.4823608       0.1381000
H3        0.3995132      0.7483826      0.5030746       0.1381000
H3        0.3894653      0.7725830      0.5037231       0.1381000
H3        0.3436737      0.5557251      0.4838562       0.1381000
H3        0.3336639      0.5577240      0.5079727       0.1381000
H3        0.3454208      0.5355072      0.5006790       0.1381000
H3        0.2683029      0.6770782      0.7202301       0.1381000
H3        0.2678070      0.6872101      0.6960297       0.1381000
H3        0.2471161      0.6741180      0.7050323       0.1381000
H3        0.6235275      0.5064621      0.6280136       0.1381000
H3        0.6475296      0.4962616      0.6306229       0.1381000
H3        0.6407318      0.5079193      0.6082230       0.1381000
H3        0.7207947      0.3974075      0.5797653       0.1381000
H3        0.7088470      0.3767929      0.5691757       0.1381000
H3        0.7175827      0.3754578      0.5938644       0.1381000
H3        0.6221313      0.2991028      0.5800171       0.1381000
H3        0.6428375      0.3121948      0.5710297       0.1381000
H3        0.6433792      0.3021011      0.5952148       0.1381000
H3        0.5145264      0.3975601      0.6287231       0.1381000
H3        0.5245743      0.3732910      0.6280746       0.1381000
H3        0.5114365      0.3824158      0.6074142       0.1381000
H3        0.6099319      0.3822556      0.7061386       0.1381000
H3        0.5892715      0.3717499      0.6940842       0.1381000
H3        0.5879745      0.3964081      0.7029877       0.1381000
H3        0.6229248      0.4281082      0.7056808       0.1381000
H3        0.6451721      0.4353561      0.6939850       0.1381000
H3        0.6430283      0.4112549      0.7039261       0.1381000
H3        0.6251297      0.3752518      0.5008240       0.1381000
H3        0.6499863      0.3753510      0.5091248       0.1381000
H3        0.6399384      0.3968048      0.4981766       0.1381000
H3        0.6099319      0.4309998      0.4997177       0.1381000
H3        0.5857239      0.4305038      0.5098114       0.1381000
H3        0.5947342      0.4097595      0.4967194       0.1381000
H3        0.5129318      0.4276047      0.5944672       0.1381000
H3        0.5238800      0.4375687      0.5729218       0.1381000
H3        0.5155258      0.4127121      0.5729218       0.1381000
H3        0.5945282      0.5084610      0.5951157       0.1381000
H3        0.5840378      0.4964523      0.5744247       0.1381000
H3        0.6086807      0.5053101      0.5731735       0.1381000
H3        0.7186890      0.4306641      0.6088104       0.1381000
H3        0.7086945      0.4327545      0.6329193       0.1381000
H3        0.7204361      0.4105682      0.6257172       0.1381000
H3        0.5876846      0.3031464      0.6103134       0.1381000
H3        0.5876846      0.3115082      0.6352234       0.1381000
H3        0.6091843      0.3006058      0.6252670       0.1381000
H3        0.7341995      0.4256058      0.5002670       0.1381000
H3        0.7126389      0.4365082      0.5102234       0.1381000
H3        0.7126846      0.4281616      0.4853592       0.1381000
H3        0.4984818      0.3815613      0.5029144       0.1381000
H3        0.5223846      0.3712463      0.5058289       0.1381000
H3        0.5158768      0.3828125      0.4832535       0.1381000
H3        0.5957794      0.5224533      0.7048264       0.1381000
H3        0.5838318      0.5018082      0.6942291       0.1381000
H3        0.5926285      0.5005188      0.7189255       0.1381000
H3        0.7337418      0.3803558      0.6982346       0.1381000
H3        0.7090912      0.3714523      0.6994247       0.1381000
H3        0.7194977      0.3834610      0.7201309       0.1381000
H3        0.7348862      0.5072556      0.5811234       0.1381000
H3        0.7142868      0.4967041      0.5690689       0.1381000
H3        0.7129364      0.5213623      0.5779724       0.1381000
H3        0.4979248      0.3031082      0.5806656       0.1381000
H3        0.5201263      0.3104019      0.5689240       0.1381000
H3        0.5180817      0.2862549      0.5789108       0.1381000
H3        0.5000763      0.5002670      0.6258240       0.1381000
H3        0.5249863      0.5003510      0.6341705       0.1381000
H3        0.5149384      0.5218048      0.6231766       0.1381000
H3        0.7349472      0.3059998      0.6247177       0.1381000
H3        0.7107391      0.3055038      0.6348114       0.1381000
H3        0.7197495      0.2847595      0.6217194       0.1381000
H3        0.6379318      0.3026047      0.7194824       0.1381000
H3        0.6489258      0.3125534      0.6979828       0.1381000
H3        0.6405258      0.2876968      0.6979218       0.1381000
H3        0.6364746      0.5074158      0.4823608       0.1381000
H3        0.6495285      0.4983673      0.5030746       0.1381000
H3        0.6394806      0.5225601      0.5037231       0.1381000
H3        0.5936737      0.3056946      0.4838562       0.1381000
H3        0.5836792      0.3076935      0.5079727       0.1381000
H3        0.5954208      0.2855072      0.5006790       0.1381000
H3        0.5183334      0.4270630      0.7202301       0.1381000
H3        0.5178375      0.4372101      0.6960297       0.1381000
H3        0.4971313      0.4241180      0.7050323       0.1381000
H3        0.3735123      0.5064621      0.6280136       0.1381000
H3        0.3975143      0.4962616      0.6306229       0.1381000
H3        0.3907166      0.5079193      0.6082230       0.1381000
H3        0.4707794      0.3974075      0.5797653       0.1381000
H3        0.4588165      0.3767929      0.5691757       0.1381000
H3        0.4675674      0.3754578      0.5938644       0.1381000
H3        0.3721161      0.2991028      0.5800171       0.1381000
H3        0.3928223      0.3121948      0.5710297       0.1381000
H3        0.3933640      0.3021011      0.5952148       0.1381000
H3        0.2645111      0.3975601      0.6287231       0.1381000
H3        0.2745590      0.3732910      0.6280746       0.1381000
H3        0.2614059      0.3824158      0.6074142       0.1381000
H3        0.3599167      0.3822556      0.7061386       0.1381000
H3        0.3392715      0.3717499      0.6940842       0.1381000
H3        0.3379669      0.3964081      0.7029877       0.1381000
H3        0.3729248      0.4281082      0.7056808       0.1381000
H3        0.3951721      0.4353561      0.6939850       0.1381000
H3        0.3930283      0.4112549      0.7039261       0.1381000
H3        0.3751144      0.3752518      0.5008240       0.1381000
H3        0.3999710      0.3753510      0.5091248       0.1381000
H3        0.3899231      0.3968048      0.4981766       0.1381000
H3        0.3599167      0.4309998      0.4997177       0.1381000
H3        0.3357239      0.4305038      0.5098114       0.1381000
H3        0.3447189      0.4097595      0.4967194       0.1381000
H3        0.2629013      0.4276047      0.5944672       0.1381000
H3        0.2738647      0.4375687      0.5729218       0.1381000
H3        0.2655106      0.4127121      0.5729218       0.1381000
H3        0.3445282      0.5084610      0.5951157       0.1381000
H3        0.3340225      0.4964523      0.5744247       0.1381000
H3        0.3586655      0.5053101      0.5731735       0.1381000
H3        0.4686737      0.4306641      0.6088104       0.1381000
H3        0.4586639      0.4327545      0.6329193       0.1381000
H3        0.4704208      0.4105682      0.6257172       0.1381000
H3        0.3376694      0.3031464      0.6103134       0.1381000
H3        0.3376694      0.3115082      0.6352234       0.1381000
H3        0.3591690      0.3006058      0.6252670       0.1381000
H3        0.4841690      0.4256058      0.5002670       0.1381000
H3        0.4626236      0.4365082      0.5102234       0.1381000
H3        0.4626694      0.4281616      0.4853592       0.1381000
H3        0.2484512      0.3815613      0.5029144       0.1381000
H3        0.2723694      0.3712463      0.5058289       0.1381000
H3        0.2658615      0.3828125      0.4832535       0.1381000
H3        0.3457794      0.5224533      0.7048264       0.1381000
H3        0.3338165      0.5018082      0.6942291       0.1381000
H3        0.3426132      0.5005188      0.7189255       0.1381000
H3        0.4837265      0.3803558      0.6982346       0.1381000
H3        0.4590607      0.3714523      0.6994247       0.1381000
H3        0.4694672      0.3834610      0.7201309       0.1381000
H3        0.4848709      0.5072556      0.5811234       0.1381000
H3        0.4642715      0.4967041      0.5690689       0.1381000
H3        0.4629211      0.5213623      0.5779724       0.1381000
H3        0.2479095      0.3031082      0.5806656       0.1381000
H3        0.2701111      0.3104019      0.5689240       0.1381000
H3        0.2680511      0.2862549      0.5789108       0.1381000
H3        0.2500610      0.5002670      0.6258240       0.1381000
H3        0.2749557      0.5003510      0.6341705       0.1381000
H3        0.2649078      0.5218048      0.6231766       0.1381000
H3        0.4849167      0.3059998      0.6247177       0.1381000
H3        0.4607239      0.3055038      0.6348114       0.1381000
H3        0.4697189      0.2847595      0.6217194       0.1381000
H3        0.3879166      0.3026047      0.7194824       0.1381000
H3        0.3989258      0.3125534      0.6979828       0.1381000
H3        0.3905258      0.2876968      0.6979218       0.1381000
H3        0.3864746      0.5074158      0.4823608       0.1381000
H3        0.3995132      0.4983673      0.5030746       0.1381000
H3        0.3894653      0.5225601      0.5037231       0.1381000
H3        0.3436737      0.3056946      0.4838562       0.1381000
H3        0.3336639      0.3076935      0.5079727       0.1381000
H3        0.3454208      0.2855072      0.5006790       0.1381000
H3        0.2683029      0.4270630      0.7202301       0.1381000
H3        0.2678070      0.4372101      0.6960297       0.1381000
H3        0.2471161      0.4241180      0.7050323       0.1381000
H3        0.6235275      0.7564774      0.3780136       0.1381000
H3        0.6475296      0.7462769      0.3806076       0.1381000
H3        0.6407318      0.7579346      0.3582077       0.1381000
H3        0.7207947      0.6474228      0.3297501       0.1381000
H3        0.7088470      0.6268234      0.3191452       0.1381000
H3        0.7175827      0.6254730      0.3438644       0.1381000
H3        0.6221313      0.5491180      0.3300018       0.1381000
H3        0.6428375      0.5622101      0.3209991       0.1381000
H3        0.6433792      0.5521164      0.3451996       0.1381000
H3        0.5145264      0.6475754      0.3787079       0.1381000
H3        0.5245743      0.6233215      0.3780594       0.1381000
H3        0.5114365      0.6324158      0.3574142       0.1381000
H3        0.6099319      0.6322708      0.4561081       0.1381000
H3        0.5892715      0.6217651      0.4440536       0.1381000
H3        0.5879745      0.6464233      0.4529572       0.1381000
H3        0.6229248      0.6781158      0.4556656       0.1381000
H3        0.6451721      0.6853714      0.4439697       0.1381000
H3        0.6430283      0.6612701      0.4539108       0.1381000
H3        0.6251297      0.6252670      0.2507935       0.1381000
H3        0.6499863      0.6253662      0.2590942       0.1381000
H3        0.6399384      0.6468201      0.2481461       0.1381000
H3        0.5129318      0.6776199      0.3444672       0.1381000
H3        0.5238800      0.6875687      0.3229141       0.1381000
H3        0.5155258      0.6627121      0.3229141       0.1381000
H3        0.5945282      0.7584763      0.3451157       0.1381000
H3        0.5840378      0.7464828      0.3244095       0.1381000
H3        0.6086807      0.7553253      0.3231583       0.1381000
H3        0.7186890      0.6806641      0.3588104       0.1381000
H3        0.7086945      0.6827698      0.3829193       0.1381000
H3        0.7204361      0.6605682      0.3757095       0.1381000
H3        0.5876846      0.5531616      0.3603134       0.1381000
H3        0.5876846      0.5615234      0.3852081       0.1381000
H3        0.6091843      0.5506210      0.3752670       0.1381000
H3        0.7341995      0.6756210      0.2502518       0.1381000
H3        0.7126389      0.6865234      0.2602005       0.1381000
H3        0.7126846      0.6781616      0.2353439       0.1381000
H3        0.4984818      0.6315613      0.2528992       0.1381000
H3        0.5223846      0.6212769      0.2557983       0.1381000
H3        0.5158768      0.6328125      0.2332535       0.1381000
H3        0.5957794      0.7724838      0.4548111       0.1381000
H3        0.5838318      0.7518234      0.4442139       0.1381000
H3        0.5926285      0.7505264      0.4689102       0.1381000
H3        0.7337418      0.6303711      0.4482040       0.1381000
H3        0.7090912      0.6214676      0.4494095       0.1381000
H3        0.7194977      0.6334763      0.4701157       0.1381000
H3        0.7348862      0.7572861      0.3311081       0.1381000
H3        0.7142868      0.7467346      0.3190536       0.1381000
H3        0.7129364      0.7713776      0.3279572       0.1381000
H3        0.4979248      0.5531158      0.3306656       0.1381000
H3        0.5201263      0.5604172      0.3188934       0.1381000
H3        0.5180817      0.5362549      0.3289108       0.1381000
H3        0.5000763      0.7502823      0.3758087       0.1381000
H3        0.5249863      0.7503815      0.3841705       0.1381000
H3        0.5149384      0.7718353      0.3731613       0.1381000
H3        0.7349472      0.5560150      0.3747025       0.1381000
H3        0.7107391      0.5555191      0.3848114       0.1381000
H3        0.7197495      0.5347595      0.3717041       0.1381000
H3        0.6379318      0.5526199      0.4694672       0.1381000
H3        0.6489258      0.5625687      0.4479523       0.1381000
H3        0.6405258      0.5377121      0.4479141       0.1381000
H3        0.6364746      0.7574310      0.2323608       0.1381000
H3        0.6495285      0.7483826      0.2530441       0.1381000
H3        0.6394806      0.7725830      0.2536926       0.1381000
H3        0.5936737      0.5557251      0.2338409       0.1381000
H3        0.5836792      0.5577240      0.2579422       0.1381000
H3        0.5954208      0.5355072      0.2506485       0.1381000
H3        0.5183334      0.6770782      0.4701996       0.1381000
H3        0.5178375      0.6872101      0.4460144       0.1381000
H3        0.4971313      0.6741180      0.4550018       0.1381000
H3        0.3735123      0.7564774      0.3780136       0.1381000
H3        0.3975143      0.7462769      0.3806076       0.1381000
H3        0.3907166      0.7579346      0.3582077       0.1381000
H3        0.4707794      0.6474228      0.3297501       0.1381000
H3        0.4588165      0.6268234      0.3191452       0.1381000
H3        0.4675674      0.6254730      0.3438644       0.1381000
H3        0.3721161      0.5491180      0.3300018       0.1381000
H3        0.3928223      0.5622101      0.3209991       0.1381000
H3        0.3933640      0.5521164      0.3451996       0.1381000
H3        0.2645111      0.6475754      0.3787079       0.1381000
H3        0.2745590      0.6233215      0.3780594       0.1381000
H3        0.2614059      0.6324158      0.3574142       0.1381000
H3        0.3599167      0.6322708      0.4561081       0.1381000
H3        0.3392715      0.6217651      0.4440536       0.1381000
H3        0.3379669      0.6464233      0.4529572       0.1381000
H3        0.3729248      0.6781158      0.4556656       0.1381000
H3        0.3951721      0.6853714      0.4439697       0.1381000
H3        0.3930283      0.6612701      0.4539108       0.1381000
H3        0.3751144      0.6252670      0.2507935       0.1381000
H3        0.3999710      0.6253662      0.2590942       0.1381000
H3        0.3899231      0.6468201      0.2481461       0.1381000
H3        0.3599167      0.6810150      0.2497025       0.1381000
H3        0.3357239      0.6805191      0.2597961       0.1381000
H3        0.3447189      0.6597672      0.2467041       0.1381000
H3        0.2629013      0.6776199      0.3444672       0.1381000
H3        0.2738647      0.6875687      0.3229141       0.1381000
H3        0.2655106      0.6627121      0.3229141       0.1381000
H3        0.3445282      0.7584763      0.3451157       0.1381000
H3        0.3340225      0.7464828      0.3244095       0.1381000
H3        0.3586655      0.7553253      0.3231583       0.1381000
H3        0.4686737      0.6806641      0.3588104       0.1381000
H3        0.4586639      0.6827698      0.3829193       0.1381000
H3        0.4704208      0.6605682      0.3757095       0.1381000
H3        0.3376694      0.5531616      0.3603134       0.1381000
H3        0.3376694      0.5615234      0.3852081       0.1381000
H3        0.3591690      0.5506210      0.3752670       0.1381000
H3        0.4841690      0.6756210      0.2502518       0.1381000
H3        0.4626236      0.6865234      0.2602005       0.1381000
H3        0.4626694      0.6781616      0.2353439       0.1381000
H3        0.2484512      0.6315613      0.2528992       0.1381000
H3        0.2723694      0.6212769      0.2557983       0.1381000
H3        0.2658615      0.6328125      0.2332535       0.1381000
H3        0.3457794      0.7724838      0.4548111       0.1381000
H3        0.3338165      0.7518234      0.4442139       0.1381000
H3        0.3426132      0.7505264      0.4689102       0.1381000
H3        0.4837265      0.6303711      0.4482040       0.1381000
H3        0.4590607      0.6214676      0.4494095       0.1381000
H3        0.4694672      0.6334763      0.4701157       0.1381000
H3        0.4848709      0.7572861      0.3311081       0.1381000
H3        0.4642715      0.7467346      0.3190536       0.1381000
H3        0.4629211      0.7713776      0.3279572       0.1381000
H3        0.2479095      0.5531158      0.3306656       0.1381000
H3        0.2701111      0.5604172      0.3188934       0.1381000
H3        0.2680511      0.5362549      0.3289108       0.1381000
H3        0.2500610      0.7502823      0.3758087       0.1381000
H3        0.2749557      0.7503815      0.3841705       0.1381000
H3        0.2649078      0.7718353      0.3731613       0.1381000
H3        0.4849167      0.5560150      0.3747025       0.1381000
H3        0.4607239      0.5555191      0.3848114       0.1381000
H3        0.4697189      0.5347595      0.3717041       0.1381000
H3        0.3879166      0.5526199      0.4694672       0.1381000
H3        0.3989258      0.5625687      0.4479523       0.1381000
H3        0.3905258      0.5377121      0.4479141       0.1381000
H3        0.3864746      0.7574310      0.2323608       0.1381000
H3        0.3995132      0.7483826      0.2530441       0.1381000
H3        0.3894653      0.7725830      0.2536926       0.1381000
H3        0.3436737      0.5557251      0.2338409       0.1381000
H3        0.3336639      0.5577240      0.2579422       0.1381000
H3        0.3454208      0.5355072      0.2506485       0.1381000
H3        0.2683029      0.6770782      0.4701996       0.1381000
H3        0.2678070      0.6872101      0.4460144       0.1381000
H3        0.2471161      0.6741180      0.4550018       0.1381000
H3        0.6235275      0.5064621      0.3780136       0.1381000
H3        0.6475296      0.4962616      0.3806076       0.1381000
H3        0.6407318      0.5079193      0.3582077       0.1381000
H3        0.7207947      0.3974075      0.3297501       0.1381000
H3        0.7088470      0.3767929      0.3191452       0.1381000
H3        0.7175827      0.3754578      0.3438644       0.1381000
H3        0.6221313      0.2991028      0.3300018       0.1381000
H3        0.6428375      0.3121948      0.3209991       0.1381000
H3        0.6433792      0.3021011      0.3451996       0.1381000
H3        0.5145264      0.3975601      0.3787079       0.1381000
H3        0.5245743      0.3732910      0.3780594       0.1381000
H3        0.5114365      0.3824158      0.3574142       0.1381000
H3        0.6099319      0.3822556      0.4561081       0.1381000
H3        0.5892715      0.3717499      0.4440536       0.1381000
H3        0.5879745      0.3964081      0.4529572       0.1381000
H3        0.6229248      0.4281082      0.4556656       0.1381000
H3        0.6451721      0.4353561      0.4439697       0.1381000
H3        0.6430283      0.4112549      0.4539108       0.1381000
H3        0.6251297      0.3752518      0.2507935       0.1381000
H3        0.6499863      0.3753510      0.2590942       0.1381000
H3        0.6399384      0.3968048      0.2481461       0.1381000
H3        0.6099319      0.4309998      0.2497025       0.1381000
H3        0.5857239      0.4305038      0.2597961       0.1381000
H3        0.5947342      0.4097595      0.2467041       0.1381000
H3        0.5129318      0.4276047      0.3444672       0.1381000
H3        0.5238800      0.4375687      0.3229141       0.1381000
H3        0.5155258      0.4127121      0.3229141       0.1381000
H3        0.5945282      0.5084610      0.3451157       0.1381000
H3        0.5840378      0.4964523      0.3244095       0.1381000
H3        0.6086807      0.5053101      0.3231583       0.1381000
H3        0.7186890      0.4306641      0.3588104       0.1381000
H3        0.7086945      0.4327545      0.3829193       0.1381000
H3        0.7204361      0.4105682      0.3757095       0.1381000
H3        0.5876846      0.3031464      0.3603134       0.1381000
H3        0.5876846      0.3115082      0.3852081       0.1381000
H3        0.6091843      0.3006058      0.3752670       0.1381000
H3        0.7341995      0.4256058      0.2502518       0.1381000
H3        0.7126389      0.4365082      0.2602005       0.1381000
H3        0.7126846      0.4281616      0.2353439       0.1381000
H3        0.4984818      0.3815613      0.2528992       0.1381000
H3        0.5223846      0.3712463      0.2557983       0.1381000
H3        0.5158768      0.3828125      0.2332535       0.1381000
H3        0.5957794      0.5224533      0.4548111       0.1381000
H3        0.5838318      0.5018082      0.4442139       0.1381000
H3        0.5926285      0.5005188      0.4689102       0.1381000
H3        0.7337418      0.3803558      0.4482040       0.1381000
H3        0.7090912      0.3714523      0.4494095       0.1381000
H3        0.7194977      0.3834610      0.4701157       0.1381000
H3        0.7348862      0.5072556      0.3311081       0.1381000
H3        0.7142868      0.4967041      0.3190536       0.1381000
H3        0.7129364      0.5213623      0.3279572       0.1381000
H3        0.4979248      0.3031082      0.3306656       0.1381000
H3        0.5201263      0.3104019      0.3188934       0.1381000
H3        0.5180817      0.2862549      0.3289108       0.1381000
H3        0.5000763      0.5002670      0.3758087       0.1381000
H3        0.5249863      0.5003510      0.3841705       0.1381000
H3        0.5149384      0.5218048      0.3731613       0.1381000
H3        0.7349472      0.3059998      0.3747025       0.1381000
H3        0.7107391      0.3055038      0.3848114       0.1381000
H3        0.7197495      0.2847595      0.3717041       0.1381000
H3        0.6379318      0.3026047      0.4694672       0.1381000
H3        0.6489258      0.3125534      0.4479523       0.1381000
H3        0.6405258      0.2876968      0.4479141       0.1381000
H3        0.6364746      0.5074158      0.2323608       0.1381000
H3        0.6495285      0.4983673      0.2530441       0.1381000
H3        0.6394806      0.5225601      0.2536926       0.1381000
H3        0.5936737      0.3056946      0.2338409       0.1381000
H3        0.5836792      0.3076935      0.2579422       0.1381000
H3        0.5954208      0.2855072      0.2506485       0.1381000
H3        0.5183334      0.4270630      0.4701996       0.1381000
H3        0.5178375      0.4372101      0.4460144       0.1381000
H3        0.4971313      0.4241180      0.4550018       0.1381000
C2        0.3339157      0.5024567      0.3983078      -0.0662000
C2        0.4648209      0.4362564      0.3049469      -0.0662000
C2        0.3993683      0.3046036      0.3997040      -0.0662000
C2        0.2672195      0.3710556      0.3043976      -0.0662000
C2        0.3335190      0.3049469      0.3043976      -0.0662000
C2        0.2671127      0.4379044      0.3990555      -0.0662000
C2        0.4008255      0.5047073      0.3035431      -0.0662000
C2        0.4670715      0.3703918      0.4002686      -0.0662000
C2        0.4130630      0.3715591      0.4501038      -0.0662000
C2        0.3333130      0.3566513      0.2523575      -0.0662000
C2        0.3183212      0.4384613      0.4523087      -0.0662000
C2        0.4002228      0.4514160      0.2523956      -0.0662000
C2        0.4144211      0.4369659      0.2522507      -0.0662000
C2        0.3986206      0.3573608      0.4500580      -0.0662000
C2        0.3190689      0.3711014      0.2524567      -0.0662000
C2        0.3327713      0.4526596      0.4523087      -0.0662000
C2        0.4648209      0.4507065      0.3191452      -0.0662000
C2        0.4670715      0.3559418      0.3860626      -0.0662000
C2        0.3190689      0.3047943      0.3185959      -0.0662000
C2        0.2669678      0.4521027      0.3846054      -0.0662000
C2        0.4150238      0.5047531      0.3179932      -0.0662000
C2        0.2673035      0.3567963      0.3188019      -0.0662000
C2        0.3197174      0.5024567      0.3838577      -0.0662000
C2        0.4137726      0.3047562      0.3854599      -0.0662000
C2        0.4589157      0.3774567      0.2732925      -0.0662000
C2        0.3398209      0.3112564      0.4299622      -0.0662000
C2        0.2743683      0.4296036      0.2747040      -0.0662000
C2        0.3921738      0.4960098      0.4294128      -0.0662000
C2        0.4585190      0.4299164      0.4294128      -0.0662000
C2        0.3921127      0.3129044      0.2740402      -0.0662000
C2        0.2758102      0.3797073      0.4285583      -0.0662000
C2        0.3420715      0.4954071      0.2752533      -0.0662000
C2        0.2880630      0.4965591      0.3250580      -0.0662000
C2        0.4583130      0.4817123      0.3773575      -0.0662000
C2        0.4433670      0.3134460      0.3273087      -0.0662000
C2        0.2752075      0.3264008      0.3774109      -0.0662000
C2        0.2894058      0.3119507      0.3772659      -0.0662000
C2        0.2736206      0.4823608      0.3250580      -0.0662000
C2        0.4441147      0.4961166      0.3775177      -0.0662000
C2        0.4577713      0.3276520      0.3273087      -0.0662000
C2        0.3398209      0.3257065      0.4441605      -0.0662000
C2        0.3420715      0.4810028      0.2610474      -0.0662000
C2        0.4440689      0.4298096      0.4436111      -0.0662000
C2        0.3919678      0.3271027      0.2595901      -0.0662000
C2        0.2900543      0.3797073      0.4429626      -0.0662000
C2        0.3923187      0.4818115      0.4438019      -0.0662000
C2        0.4447174      0.3774567      0.2588425      -0.0662000
C2        0.2887573      0.4298096      0.2604446      -0.0662000
C2        0.5839310      0.7524872      0.6483231      -0.0662000
C2        0.7148438      0.6862717      0.5549698      -0.0662000
C2        0.6493835      0.5546188      0.6497192      -0.0662000
C2        0.5172272      0.6210709      0.5544128      -0.0662000
C2        0.5835342      0.5549698      0.5544128      -0.0662000
C2        0.5171280      0.6879196      0.6490707      -0.0662000
C2        0.6508255      0.7547226      0.5535736      -0.0662000
C2        0.7170868      0.6204224      0.6502686      -0.0662000
C2        0.6630936      0.6215744      0.7001343      -0.0662000
C2        0.5833282      0.6066666      0.5023727      -0.0662000
C2        0.5683365      0.6884613      0.7023239      -0.0662000
C2        0.6502380      0.7014236      0.5024109      -0.0662000
C2        0.6644363      0.6869659      0.5022659      -0.0662000
C2        0.6486282      0.6073685      0.7000732      -0.0662000
C2        0.5690842      0.6211166      0.5024719      -0.0662000
C2        0.5827866      0.7026596      0.7023239      -0.0662000
C2        0.7148438      0.7007217      0.5691757      -0.0662000
C2        0.7170868      0.6059723      0.6360626      -0.0662000
C2        0.5690842      0.5548248      0.5686111      -0.0662000
C2        0.5169830      0.7021179      0.6346207      -0.0662000
C2        0.6650391      0.7547836      0.5680237      -0.0662000
C2        0.5173340      0.6068115      0.5688171      -0.0662000
C2        0.5697327      0.7524872      0.6338730      -0.0662000
C2        0.6637878      0.5547638      0.6354752      -0.0662000
C2        0.7089462      0.6274719      0.5233231      -0.0662000
C2        0.5898285      0.5612717      0.6799698      -0.0662000
C2        0.5243835      0.6796188      0.5247192      -0.0662000
C2        0.6421890      0.7460251      0.6794281      -0.0662000
C2        0.7085342      0.6799164      0.6794281      -0.0662000
C2        0.6421280      0.5629196      0.5240707      -0.0662000
C2        0.5258255      0.6297226      0.6785736      -0.0662000
C2        0.5920868      0.7454224      0.5252686      -0.0662000
C2        0.5380783      0.7465897      0.5750732      -0.0662000
C2        0.7083435      0.7317276      0.6273727      -0.0662000
C2        0.6933899      0.5634613      0.5773239      -0.0662000
C2        0.5252380      0.5764236      0.6274109      -0.0662000
C2        0.5394363      0.5619659      0.6272659      -0.0662000
C2        0.5236282      0.7323837      0.5750732      -0.0662000
C2        0.6941452      0.7461319      0.6275177      -0.0662000
C2        0.7077866      0.5776596      0.5773239      -0.0662000
C2        0.5898285      0.5757217      0.6941757      -0.0662000
C2        0.5920868      0.7310333      0.5110626      -0.0662000
C2        0.6940842      0.6798248      0.6936264      -0.0662000
C2        0.6419830      0.5771179      0.5096207      -0.0662000
C2        0.5400848      0.6297226      0.6929779      -0.0662000
C2        0.6423340      0.7318268      0.6938324      -0.0662000
C2        0.6947479      0.6274719      0.5088730      -0.0662000
C2        0.5387726      0.6798248      0.5104752      -0.0662000
C2        0.3339157      0.7524872      0.6483231      -0.0662000
C2        0.4648209      0.6862717      0.5549698      -0.0662000
C2        0.3993683      0.5546188      0.6497192      -0.0662000
C2        0.2672195      0.6210709      0.5544128      -0.0662000
C2        0.3335190      0.5549698      0.5544128      -0.0662000
C2        0.2671127      0.6879196      0.6490707      -0.0662000
C2        0.4008255      0.7547226      0.5535736      -0.0662000
C2        0.4670715      0.6204224      0.6502686      -0.0662000
C2        0.4130630      0.6215744      0.7001343      -0.0662000
C2        0.3333130      0.6066666      0.5023727      -0.0662000
C2        0.3183212      0.6884613      0.7023239      -0.0662000
C2        0.4002228      0.7014236      0.5024109      -0.0662000
C2        0.4144211      0.6869659      0.5022659      -0.0662000
C2        0.3986206      0.6073685      0.7000732      -0.0662000
C2        0.3190689      0.6211166      0.5024719      -0.0662000
C2        0.3327713      0.7026596      0.7023239      -0.0662000
C2        0.4648209      0.7007217      0.5691757      -0.0662000
C2        0.4670715      0.6059723      0.6360626      -0.0662000
C2        0.3190689      0.5548248      0.5686111      -0.0662000
C2        0.2669678      0.7021179      0.6346207      -0.0662000
C2        0.4150238      0.7547836      0.5680237      -0.0662000
C2        0.2673035      0.6068115      0.5688171      -0.0662000
C2        0.3197174      0.7524872      0.6338730      -0.0662000
C2        0.4137726      0.5547638      0.6354752      -0.0662000
C2        0.4589157      0.6274719      0.5233231      -0.0662000
C2        0.3398209      0.5612717      0.6799698      -0.0662000
C2        0.2743683      0.6796188      0.5247192      -0.0662000
C2        0.3921738      0.7460251      0.6794281      -0.0662000
C2        0.4585190      0.6799164      0.6794281      -0.0662000
C2        0.3921127      0.5629196      0.5240707      -0.0662000
C2        0.2758102      0.6297226      0.6785736      -0.0662000
C2        0.3420715      0.7454224      0.5252686      -0.0662000
C2        0.2880630      0.7465897      0.5750732      -0.0662000
C2        0.4583130      0.7317276      0.6273727      -0.0662000
C2        0.4433670      0.5634613      0.5773239      -0.0662000
C2        0.2752075      0.5764236      0.6274109      -0.0662000
C2        0.2894058      0.5619659      0.6272659      -0.0662000
C2        0.2736206      0.7323837      0.5750732      -0.0662000
C2        0.4441147      0.7461319      0.6275177      -0.0662000
C2        0.4577713      0.5776596      0.5773239      -0.0662000
C2        0.3398209      0.5757217      0.6941757      -0.0662000
C2        0.3420715      0.7310333      0.5110626      -0.0662000
C2        0.4440689      0.6798248      0.6936264      -0.0662000
C2        0.3919678      0.5771179      0.5096207      -0.0662000
C2        0.2900543      0.6297226      0.6929779      -0.0662000
C2        0.3923187      0.7318268      0.6938324      -0.0662000
C2        0.4447174      0.6274719      0.5088730      -0.0662000
C2        0.2887573      0.6798248      0.5104752      -0.0662000
C2        0.5839310      0.5024567      0.6483231      -0.0662000
C2        0.7148438      0.4362564      0.5549698      -0.0662000
C2        0.6493835      0.3046036      0.6497192      -0.0662000
C2        0.5172272      0.3710556      0.5544128      -0.0662000
C2        0.5835342      0.3049469      0.5544128      -0.0662000
C2        0.5171280      0.4379044      0.6490707      -0.0662000
C2        0.6508255      0.5047073      0.5535736      -0.0662000
C2        0.7170868      0.3703918      0.6502686      -0.0662000
C2        0.6630936      0.3715591      0.7001343      -0.0662000
C2        0.5833282      0.3566513      0.5023727      -0.0662000
C2        0.5683365      0.4384613      0.7023239      -0.0662000
C2        0.6502380      0.4514160      0.5024109      -0.0662000
C2        0.6644363      0.4369659      0.5022659      -0.0662000
C2        0.6486282      0.3573608      0.7000732      -0.0662000
C2        0.5690842      0.3711014      0.5024719      -0.0662000
C2        0.5827866      0.4526596      0.7023239      -0.0662000
C2        0.7148438      0.4507065      0.5691757      -0.0662000
C2        0.7170868      0.3559418      0.6360626      -0.0662000
C2        0.5690842      0.3047943      0.5686111      -0.0662000
C2        0.5169830      0.4521027      0.6346207      -0.0662000
C2        0.6650391      0.5047531      0.5680237      -0.0662000
C2        0.5173340      0.3567963      0.5688171      -0.0662000
C2        0.5697327      0.5024567      0.6338730      -0.0662000
C2        0.6637878      0.3047562      0.6354752      -0.0662000
C2        0.7089462      0.3774567      0.5233231      -0.0662000
C2        0.5898285      0.3112564      0.6799698      -0.0662000
C2        0.5243835      0.4296036      0.5247192      -0.0662000
C2        0.6421890      0.4960098      0.6794281      -0.0662000
C2        0.7085342      0.4299164      0.6794281      -0.0662000
C2        0.6421280      0.3129044      0.5240707      -0.0662000
C2        0.5258255      0.3797073      0.6785736      -0.0662000
C2        0.5920868      0.4954071      0.5252686      -0.0662000
C2        0.5380783      0.4965591      0.5750732      -0.0662000
C2        0.7083435      0.4817123      0.6273727      -0.0662000
C2        0.6933899      0.3134460      0.5773239      -0.0662000
C2        0.5252380      0.3264008      0.6274109      -0.0662000
C2        0.5394363      0.3119507      0.6272659      -0.0662000
C2        0.5236282      0.4823608      0.5750732      -0.0662000
C2        0.6941452      0.4961166      0.6275177      -0.0662000
C2        0.7077866      0.3276520      0.5773239      -0.0662000
C2        0.5898285      0.3257065      0.6941757      -0.0662000
C2        0.5920868      0.4810028      0.5110626      -0.0662000
C2        0.6940842      0.4298096      0.6936264      -0.0662000
C2        0.6419830      0.3271027      0.5096207      -0.0662000
C2        0.5400848      0.3797073      0.6929779      -0.0662000
C2        0.6423340      0.4818115      0.6938324      -0.0662000
C2        0.6947479      0.3774567      0.5088730      -0.0662000
C2        0.5387726      0.4298096      0.5104752      -0.0662000
C2        0.3339157      0.5024567      0.6483231      -0.0662000
C2        0.4648209      0.4362564      0.5549698      -0.0662000
C2        0.3993683      0.3046036      0.6497192      -0.0662000
C2        0.2672195      0.3710556      0.5544128      -0.0662000
C2        0.3335190      0.3049469      0.5544128      -0.0662000
C2        0.2671127      0.4379044      0.6490707      -0.0662000
C2        0.4008255      0.5047073      0.5535736      -0.0662000
C2        0.4670715      0.3703918      0.6502686      -0.0662000
C2        0.4130630      0.3715591      0.7001343      -0.0662000
C2        0.3333130      0.3566513      0.5023727      -0.0662000
C2        0.3183212      0.4384613      0.7023239      -0.0662000
C2        0.4002228      0.4514160      0.5024109      -0.0662000
C2        0.4144211      0.4369659      0.5022659      -0.0662000
C2        0.3986206      0.3573608      0.7000732      -0.0662000
C2        0.3190689      0.3711014      0.5024719      -0.0662000
C2        0.3327713      0.4526596      0.7023239      -0.0662000
C2        0.4648209      0.4507065      0.5691757      -0.0662000
C2        0.4670715      0.3559418      0.6360626      -0.0662000
C2        0.3190689      0.3047943      0.5686111      -0.0662000
C2        0.2669678      0.4521027      0.6346207      -0.0662000
C2        0.4150238      0.5047531      0.5680237      -0.0662000
C2        0.2673035      0.3567963      0.5688171      -0.0662000
C2        0.3197174      0.5024567      0.6338730      -0.0662000
C2        0.4137726      0.3047562      0.6354752      -0.0662000
C2        0.4589157      0.3774567      0.5233231      -0.0662000
C2        0.3398209      0.3112564      0.6799698      -0.0662000
C2        0.2743683      0.4296036      0.5247192      -0.0662000
C2        0.3921738      0.4960098      0.6794281      -0.0662000
C2        0.4585190      0.4299164      0.6794281      -0.0662000
C2        0.3921127      0.3129044      0.5240707      -0.0662000
C2        0.2758102      0.3797073      0.6785736      -0.0662000
C2        0.3420715      0.4954071      0.5252686      -0.0662000
C2        0.2880630      0.4965591      0.5750732      -0.0662000
C2        0.4583130      0.4817123      0.6273727      -0.0662000
C2        0.4433670      0.3134460      0.5773239      -0.0662000
C2        0.2752075      0.3264008      0.6274109      -0.0662000
C2        0.2894058      0.3119507      0.6272659      -0.0662000
C2        0.2736206      0.4823608      0.5750732      -0.0662000
C2        0.4441147      0.4961166      0.6275177      -0.0662000
C2        0.4577713      0.3276520      0.5773239      -0.0662000
C2        0.3398209      0.3257065      0.6941757      -0.0662000
C2        0.3420715      0.4810028      0.5110626      -0.0662000
C2        0.4440689      0.4298096      0.6936264      -0.0662000
C2        0.3919678      0.3271027      0.5096207      -0.0662000
C2        0.2900543      0.3797073      0.6929779      -0.0662000
C2        0.3923187      0.4818115      0.6938324      -0.0662000
C2        0.4447174      0.3774567      0.5088730      -0.0662000
C2        0.2887573      0.4298096      0.5104752      -0.0662000
C2        0.7148438      0.6862717      0.3049469      -0.0662000
C2        0.6493835      0.5546188      0.3997040      -0.0662000
C2        0.5172272      0.6210709      0.3043976      -0.0662000
C2        0.5835342      0.5549698      0.3043976      -0.0662000
C2        0.5171280      0.6879196      0.3990555      -0.0662000
C2        0.6508255      0.7547226      0.3035431      -0.0662000
C2        0.7170868      0.6204224      0.4002686      -0.0662000
C2        0.6630936      0.6215744      0.4501038      -0.0662000
C2        0.5833282      0.6066666      0.2523575      -0.0662000
C2        0.5683365      0.6884613      0.4523087      -0.0662000
C2        0.6502380      0.7014236      0.2523956      -0.0662000
C2        0.6644363      0.6869659      0.2522507      -0.0662000
C2        0.6486282      0.6073685      0.4500580      -0.0662000
C2        0.5690842      0.6211166      0.2524567      -0.0662000
C2        0.5827866      0.7026596      0.4523087      -0.0662000
C2        0.7148438      0.7007217      0.3191452      -0.0662000
C2        0.7170868      0.6059723      0.3860626      -0.0662000
C2        0.5690842      0.5548248      0.3185959      -0.0662000
C2        0.5169830      0.7021179      0.3846054      -0.0662000
C2        0.6650391      0.7547836      0.3179932      -0.0662000
C2        0.5173340      0.6068115      0.3188019      -0.0662000
C2        0.6637878      0.5547638      0.3854599      -0.0662000
C2        0.7089462      0.6274719      0.2732925      -0.0662000
C2        0.5898285      0.5612717      0.4299622      -0.0662000
C2        0.5243835      0.6796188      0.2747040      -0.0662000
C2        0.6421890      0.7460251      0.4294128      -0.0662000
C2        0.7085342      0.6799164      0.4294128      -0.0662000
C2        0.6421280      0.5629196      0.2740402      -0.0662000
C2        0.5258255      0.6297226      0.4285583      -0.0662000
C2        0.5920868      0.7454224      0.2752533      -0.0662000
C2        0.5380783      0.7465897      0.3250580      -0.0662000
C2        0.7083435      0.7317276      0.3773575      -0.0662000
C2        0.6933899      0.5634613      0.3273087      -0.0662000
C2        0.5252380      0.5764236      0.3774109      -0.0662000
C2        0.5394363      0.5619659      0.3772659      -0.0662000
C2        0.5236282      0.7323837      0.3250580      -0.0662000
C2        0.6941452      0.7461319      0.3775177      -0.0662000
C2        0.7077866      0.5776596      0.3273087      -0.0662000
C2        0.5898285      0.5757217      0.4441605      -0.0662000
C2        0.5920868      0.7310333      0.2610474      -0.0662000
C2        0.6940842      0.6798248      0.4436111      -0.0662000
C2        0.6419830      0.5771179      0.2595901      -0.0662000
C2        0.5400848      0.6297226      0.4429626      -0.0662000
C2        0.6423340      0.7318268      0.4438019      -0.0662000
C2        0.6947479      0.6274719      0.2588425      -0.0662000
C2        0.5387726      0.6798248      0.2604446      -0.0662000
C2        0.3339157      0.7524872      0.3983078      -0.0662000
C2        0.4648209      0.6862717      0.3049469      -0.0662000
C2        0.3993683      0.5546188      0.3997040      -0.0662000
C2        0.2672195      0.6210709      0.3043976      -0.0662000
C2        0.3335190      0.5549698      0.3043976      -0.0662000
C2        0.2671127      0.6879196      0.3990555      -0.0662000
C2        0.4008255      0.7547226      0.3035431      -0.0662000
C2        0.4670715      0.6204224      0.4002686      -0.0662000
C2        0.4130630      0.6215744      0.4501038      -0.0662000
C2        0.3333130      0.6066666      0.2523575      -0.0662000
C2        0.3183212      0.6884613      0.4523087      -0.0662000
C2        0.4002228      0.7014236      0.2523956      -0.0662000
C2        0.4144211      0.6869659      0.2522507      -0.0662000
C2        0.3986206      0.6073685      0.4500580      -0.0662000
C2        0.3190689      0.6211166      0.2524567      -0.0662000
C2        0.3327713      0.7026596      0.4523087      -0.0662000
C2        0.4648209      0.7007217      0.3191452      -0.0662000
C2        0.4670715      0.6059723      0.3860626      -0.0662000
C2        0.3190689      0.5548248      0.3185959      -0.0662000
C2        0.2669678      0.7021179      0.3846054      -0.0662000
C2        0.4150238      0.7547836      0.3179932      -0.0662000
C2        0.2673035      0.6068115      0.3188019      -0.0662000
C2        0.3197174      0.7524872      0.3838577      -0.0662000
C2        0.4137726      0.5547638      0.3854599      -0.0662000
C2        0.4589157      0.6274719      0.2732925      -0.0662000
C2        0.3398209      0.5612717      0.4299622      -0.0662000
C2        0.2743683      0.6796188      0.2747040      -0.0662000
C2        0.3921738      0.7460251      0.4294128      -0.0662000
C2        0.4585190      0.6799164      0.4294128      -0.0662000
C2        0.3921127      0.5629196      0.2740402      -0.0662000
C2        0.2758102      0.6297226      0.4285583      -0.0662000
C2        0.3420715      0.7454224      0.2752533      -0.0662000
C2        0.2880630      0.7465897      0.3250580      -0.0662000
C2        0.4583130      0.7317276      0.3773575      -0.0662000
C2        0.4433670      0.5634613      0.3273087      -0.0662000
C2        0.2752075      0.5764236      0.3774109      -0.0662000
C2        0.2894058      0.5619659      0.3772659      -0.0662000
C2        0.2736206      0.7323837      0.3250580      -0.0662000
C2        0.4441147      0.7461319      0.3775177      -0.0662000
C2        0.4577713      0.5776596      0.3273087      -0.0662000
C2        0.3398209      0.5757217      0.4441605      -0.0662000
C2        0.3420715      0.7310333      0.2610474      -0.0662000
C2        0.4440689      0.6798248      0.4436111      -0.0662000
C2        0.3919678      0.5771179      0.2595901      -0.0662000
C2        0.2900543      0.6297226      0.4429626      -0.0662000
C2        0.3923187      0.7318268      0.4438019      -0.0662000
C2        0.4447174      0.6274719      0.2588425      -0.0662000
C2        0.2887573      0.6798248      0.2604446      -0.0662000
C2        0.5839310      0.5024567      0.3983078      -0.0662000
C2        0.7148438      0.4362564      0.3049469      -0.0662000
C2        0.6493835      0.3046036      0.3997040      -0.0662000
C2        0.5172272      0.3710556      0.3043976      -0.0662000
C2        0.5835342      0.3049469      0.3043976      -0.0662000
C2        0.5171280      0.4379044      0.3990555      -0.0662000
C2        0.6508255      0.5047073      0.3035431      -0.0662000
C2        0.7170868      0.3703918      0.4002686      -0.0662000
C2        0.6630936      0.3715591      0.4501038      -0.0662000
C2        0.5833282      0.3566513      0.2523575      -0.0662000
C2        0.5683365      0.4384613      0.4523087      -0.0662000
C2        0.6502380      0.4514160      0.2523956      -0.0662000
C2        0.6644363      0.4369659      0.2522507      -0.0662000
C2        0.6486282      0.3573608      0.4500580      -0.0662000
C2        0.5690842      0.3711014      0.2524567      -0.0662000
C2        0.5827866      0.4526596      0.4523087      -0.0662000
C2        0.7148438      0.4507065      0.3191452      -0.0662000
C2        0.7170868      0.3559418      0.3860626      -0.0662000
C2        0.5690842      0.3047943      0.3185959      -0.0662000
C2        0.5169830      0.4521027      0.3846054      -0.0662000
C2        0.6650391      0.5047531      0.3179932      -0.0662000
C2        0.5173340      0.3567963      0.3188019      -0.0662000
C2        0.5697327      0.5024567      0.3838577      -0.0662000
C2        0.6637878      0.3047562      0.3854599      -0.0662000
C2        0.7089462      0.3774567      0.2732925      -0.0662000
C2        0.5898285      0.3112564      0.4299622      -0.0662000
C2        0.5243835      0.4296036      0.2747040      -0.0662000
C2        0.6421890      0.4960098      0.4294128      -0.0662000
C2        0.7085342      0.4299164      0.4294128      -0.0662000
C2        0.6421280      0.3129044      0.2740402      -0.0662000
C2        0.5258255      0.3797073      0.4285583      -0.0662000
C2        0.5920868      0.4954071      0.2752533      -0.0662000
C2        0.5380783      0.4965591      0.3250580      -0.0662000
C2        0.7083435      0.4817123      0.3773575      -0.0662000
C2        0.6933899      0.3134460      0.3273087      -0.0662000
C2        0.5252380      0.3264008      0.3774109      -0.0662000
C2        0.5394363      0.3119507      0.3772659      -0.0662000
C2        0.5236282      0.4823608      0.3250580      -0.0662000
C2        0.6941452      0.4961166      0.3775177      -0.0662000
C2        0.7077866      0.3276520      0.3273087      -0.0662000
C2        0.5898285      0.3257065      0.4441605      -0.0662000
C2        0.5920868      0.4810028      0.2610474      -0.0662000
C2        0.6940842      0.4298096      0.4436111      -0.0662000
C2        0.6419830      0.3271027      0.2595901      -0.0662000
C2        0.5400848      0.3797073      0.4429626      -0.0662000
C2        0.6423340      0.4818115      0.4438019      -0.0662000
C2        0.6947479      0.3774567      0.2588425      -0.0662000
C2        0.5387726      0.4298096      0.2604446      -0.0662000
H2        0.3376236      0.4914093      0.4093170       0.1141000
H2        0.4537659      0.4323578      0.2939987       0.1141000
H2        0.3959274      0.3152466      0.4111557       0.1141000
H2        0.2779160      0.3744583      0.2929993       0.1141000
H2        0.3369217      0.3158035      0.2931442       0.1141000
H2        0.2779160      0.4347153      0.4104614       0.1141000
H2        0.3979721      0.4943085      0.2917023       0.1141000
H2        0.4566650      0.3734512      0.4120636       0.1141000
H2        0.4240723      0.3752518      0.4390640       0.1141000
H2        0.3366699      0.3451996      0.2629929       0.1141000
H2        0.3065033      0.4356079      0.4419098       0.1141000
H2        0.3970108      0.4628143      0.2631989       0.1141000
H2        0.4259262      0.4335022      0.2629013       0.1141000
H2        0.3947754      0.3463974      0.4390106       0.1141000
H2        0.3077545      0.3744965      0.2633057       0.1141000
H2        0.3358154      0.4644623      0.4419098       0.1141000
H2        0.4537659      0.4617157      0.3228073       0.1141000
H2        0.4566650      0.3441467      0.3832092       0.1141000
H2        0.3076630      0.3154907      0.3219986       0.1141000
H2        0.2776031      0.4636078      0.3811646       0.1141000
H2        0.4268723      0.4943619      0.3209991       0.1141000
H2        0.2782059      0.3456039      0.3223038       0.1141000
H2        0.3087540      0.4914093      0.3799591       0.1141000
H2        0.4251785      0.3155518      0.3823166       0.1141000
H2        0.4626236      0.3664093      0.2843018       0.1141000
H2        0.3287659      0.3073578      0.4190140       0.1141000
H2        0.2709122      0.4402618      0.2861557       0.1141000
H2        0.4028702      0.4994125      0.4179688       0.1141000
H2        0.4619217      0.4408035      0.4181137       0.1141000
H2        0.4029160      0.3097000      0.2854462       0.1141000
H2        0.2729568      0.3693085      0.4167175       0.1141000
H2        0.3316650      0.4984512      0.2870483       0.1141000
H2        0.2990570      0.5002670      0.3140488       0.1141000
H2        0.4617157      0.4702606      0.3880692       0.1141000
H2        0.4315186      0.3105927      0.3169098       0.1141000
H2        0.2720566      0.3377991      0.3882141       0.1141000
H2        0.3009109      0.3085022      0.3879013       0.1141000
H2        0.2697601      0.4714127      0.3139954       0.1141000
H2        0.4328156      0.4995575      0.3883591       0.1141000
H2        0.4608154      0.3394470      0.3169098       0.1141000
H2        0.3288269      0.3367004      0.4478073       0.1141000
H2        0.3316193      0.4691620      0.2581940       0.1141000
H2        0.4326630      0.4404678      0.4470139       0.1141000
H2        0.4025726      0.3385925      0.2561493       0.1141000
H2        0.3018570      0.3693466      0.4460144       0.1141000
H2        0.4031601      0.4705582      0.4472656       0.1141000
H2        0.4338150      0.3664093      0.2549438       0.1141000
H2        0.3001633      0.4406128      0.2573013       0.1141000
H2        0.5876236      0.7414398      0.6593170       0.1141000
H2        0.7037964      0.6823730      0.5440292       0.1141000
H2        0.6459274      0.5652771      0.6611710       0.1141000
H2        0.5279312      0.6244736      0.5430222       0.1141000
H2        0.5869370      0.5658188      0.5431747       0.1141000
H2        0.5279312      0.6847229      0.6604767       0.1141000
H2        0.6479874      0.7443314      0.5417175       0.1141000
H2        0.7066956      0.6234665      0.6620636       0.1141000
H2        0.6740875      0.6252670      0.6890793       0.1141000
H2        0.5866852      0.5952148      0.5130234       0.1141000
H2        0.5565338      0.6856232      0.6919327       0.1141000
H2        0.6470261      0.7128143      0.5132141       0.1141000
H2        0.6759415      0.6835175      0.5129166       0.1141000
H2        0.6447754      0.5964279      0.6890259       0.1141000
H2        0.5577850      0.6245117      0.5133133       0.1141000
H2        0.5858307      0.7144623      0.6919327       0.1141000
H2        0.7037964      0.7117157      0.5728226       0.1141000
H2        0.7066956      0.5941696      0.6332245       0.1141000
H2        0.5576782      0.5655212      0.5720139       0.1141000
H2        0.5276337      0.7136230      0.6311646       0.1141000
H2        0.6768799      0.7443771      0.5710297       0.1141000
H2        0.5282364      0.5956116      0.5723190       0.1141000
H2        0.5587845      0.7414398      0.6299744       0.1141000
H2        0.6751938      0.5655670      0.6323166       0.1141000
H2        0.7126389      0.6164246      0.5343170       0.1141000
H2        0.5787811      0.5573730      0.6690292       0.1141000
H2        0.5209274      0.6902771      0.5361710       0.1141000
H2        0.6528854      0.7494278      0.6679840       0.1141000
H2        0.7119370      0.6908188      0.6681290       0.1141000
H2        0.6529312      0.5597229      0.5354767       0.1141000
H2        0.5229874      0.6193237      0.6667328       0.1141000
H2        0.5816803      0.7484818      0.5370636       0.1141000
H2        0.5490723      0.7502823      0.5640640       0.1141000
H2        0.7117386      0.7202759      0.6380692       0.1141000
H2        0.6815338      0.5606232      0.5669250       0.1141000
H2        0.5220871      0.5878143      0.6382141       0.1141000
H2        0.5509262      0.5585175      0.6379166       0.1141000
H2        0.5197754      0.7214279      0.5640259       0.1141000
H2        0.6828461      0.7495728      0.6383743       0.1141000
H2        0.7108459      0.5894623      0.5669250       0.1141000
H2        0.5788269      0.5867157      0.6978378       0.1141000
H2        0.5816345      0.7191696      0.5082245       0.1141000
H2        0.6826935      0.6904678      0.6970291       0.1141000
H2        0.6525726      0.5886230      0.5061646       0.1141000
H2        0.5518799      0.6193619      0.6960297       0.1141000
H2        0.6531754      0.7205887      0.6972809       0.1141000
H2        0.6838455      0.6164246      0.5049744       0.1141000
H2        0.5501785      0.6906281      0.5073166       0.1141000
H2        0.3376236      0.7414398      0.6593170       0.1141000
H2        0.4537659      0.6823730      0.5440292       0.1141000
H2        0.3959274      0.5652771      0.6611710       0.1141000
H2        0.2779160      0.6244736      0.5430222       0.1141000
H2        0.3369217      0.5658188      0.5431747       0.1141000
H2        0.2779160      0.6847229      0.6604767       0.1141000
H2        0.3979721      0.7443314      0.5417175       0.1141000
H2        0.4566650      0.6234665      0.6620636       0.1141000
H2        0.4240723      0.6252670      0.6890793       0.1141000
H2        0.3366699      0.5952148      0.5130234       0.1141000
H2        0.3065033      0.6856232      0.6919327       0.1141000
H2        0.3970108      0.7128143      0.5132141       0.1141000
H2        0.4259262      0.6835175      0.5129166       0.1141000
H2        0.3947754      0.5964279      0.6890259       0.1141000
H2        0.3077545      0.6245117      0.5133133       0.1141000
H2        0.3358154      0.7144623      0.6919327       0.1141000
H2        0.4537659      0.7117157      0.5728226       0.1141000
H2        0.4566650      0.5941696      0.6332245       0.1141000
H2        0.3076630      0.5655212      0.5720139       0.1141000
H2        0.2776031      0.7136230      0.6311646       0.1141000
H2        0.4268723      0.7443771      0.5710297       0.1141000
H2        0.2782059      0.5956116      0.5723190       0.1141000
H2        0.3087540      0.7414398      0.6299744       0.1141000
H2        0.4251785      0.5655670      0.6323166       0.1141000
H2        0.4626236      0.6164246      0.5343170       0.1141000
H2        0.3287659      0.5573730      0.6690292       0.1141000
H2        0.2709122      0.6902771      0.5361710       0.1141000
H2        0.4028702      0.7494278      0.6679840       0.1141000
H2        0.4619217      0.6908188      0.6681290       0.1141000
H2        0.4029160      0.5597229      0.5354767       0.1141000
H2        0.2729568      0.6193237      0.6667328       0.1141000
H2        0.3316650      0.7484818      0.5370636       0.1141000
H2        0.2990570      0.7502823      0.5640640       0.1141000
H2        0.4617157      0.7202759      0.6380692       0.1141000
H2        0.4315186      0.5606232      0.5669250       0.1141000
H2        0.2720566      0.5878143      0.6382141       0.1141000
H2        0.3009109      0.5585175      0.6379166       0.1141000
H2        0.2697601      0.7214279      0.5640259       0.1141000
H2        0.4328156      0.7495728      0.6383743       0.1141000
H2        0.4608154      0.5894623      0.5669250       0.1141000
H2        0.3288269      0.5867157      0.6978378       0.1141000
H2        0.3316193      0.7191696      0.5082245       0.1141000
H2        0.4326630      0.6904678      0.6970291       0.1141000
H2        0.4025726      0.5886230      0.5061646       0.1141000
H2        0.3018570      0.6193619      0.6960297       0.1141000
H2        0.4031601      0.7205887      0.6972809       0.1141000
H2        0.4338150      0.6164246      0.5049744       0.1141000
H2        0.3001633      0.6906281      0.5073166       0.1141000
H2        0.5876236      0.4914093      0.6593170       0.1141000
H2        0.7037964      0.4323578      0.5440292       0.1141000
H2        0.6459274      0.3152466      0.6611710       0.1141000
H2        0.5279312      0.3744583      0.5430222       0.1141000
H2        0.5869370      0.3158035      0.5431747       0.1141000
H2        0.5279312      0.4347153      0.6604767       0.1141000
H2        0.6479874      0.4943085      0.5417175       0.1141000
H2        0.7066956      0.3734512      0.6620636       0.1141000
H2        0.6740875      0.3752518      0.6890793       0.1141000
H2        0.5866852      0.3451996      0.5130234       0.1141000
H2        0.5565338      0.4356079      0.6919327       0.1141000
H2        0.6470261      0.4628143      0.5132141       0.1141000
H2        0.6759415      0.4335022      0.5129166       0.1141000
H2        0.6447754      0.3463974      0.6890259       0.1141000
H2        0.5577850      0.3744965      0.5133133       0.1141000
H2        0.5858307      0.4644623      0.6919327       0.1141000
H2        0.7037964      0.4617157      0.5728226       0.1141000
H2        0.7066956      0.3441467      0.6332245       0.1141000
H2        0.5576782      0.3154907      0.5720139       0.1141000
H2        0.5276337      0.4636078      0.6311646       0.1141000
H2        0.6768799      0.4943619      0.5710297       0.1141000
H2        0.5282364      0.3456039      0.5723190       0.1141000
H2        0.5587845      0.4914093      0.6299744       0.1141000
H2        0.6751938      0.3155518      0.6323166       0.1141000
H2        0.7126389      0.3664093      0.5343170       0.1141000
H2        0.5787811      0.3073578      0.6690292       0.1141000
H2        0.5209274      0.4402618      0.5361710       0.1141000
H2        0.6528854      0.4994125      0.6679840       0.1141000
H2        0.7119370      0.4408035      0.6681290       0.1141000
H2        0.6529312      0.3097000      0.5354767       0.1141000
H2        0.5229874      0.3693085      0.6667328       0.1141000
H2        0.5816803      0.4984512      0.5370636       0.1141000
H2        0.5490723      0.5002670      0.5640640       0.1141000
H2        0.7117386      0.4702606      0.6380692       0.1141000
H2        0.6815338      0.3105927      0.5669250       0.1141000
H2        0.5220871      0.3377991      0.6382141       0.1141000
H2        0.5509262      0.3085022      0.6379166       0.1141000
H2        0.5197754      0.4714127      0.5640259       0.1141000
H2        0.6828461      0.4995575      0.6383743       0.1141000
H2        0.7108459      0.3394470      0.5669250       0.1141000
H2        0.5788269      0.3367004      0.6978378       0.1141000
H2        0.5816345      0.4691620      0.5082245       0.1141000
H2        0.6826935      0.4404678      0.6970291       0.1141000
H2        0.6525726      0.3385925      0.5061646       0.1141000
H2        0.5518799      0.3693466      0.6960297       0.1141000
H2        0.6531754      0.4705582      0.6972809       0.1141000
H2        0.6838455      0.3664093      0.5049744       0.1141000
H2        0.5501785      0.4406128      0.5073166       0.1141000
H2        0.3376236      0.4914093      0.6593170       0.1141000
H2        0.4537659      0.4323578      0.5440292       0.1141000
H2        0.3959274      0.3152466      0.6611710       0.1141000
H2        0.2779160      0.3744583      0.5430222       0.1141000
H2        0.3369217      0.3158035      0.5431747       0.1141000
H2        0.2779160      0.4347153      0.6604767       0.1141000
H2        0.3979721      0.4943085      0.5417175       0.1141000
H2        0.4566650      0.3734512      0.6620636       0.1141000
H2        0.4240723      0.3752518      0.6890793       0.1141000
H2        0.3366699      0.3451996      0.5130234       0.1141000
H2        0.3065033      0.4356079      0.6919327       0.1141000
H2        0.3970108      0.4628143      0.5132141       0.1141000
H2        0.4259262      0.4335022      0.5129166       0.1141000
H2        0.3947754      0.3463974      0.6890259       0.1141000
H2        0.3077545      0.3744965      0.5133133       0.1141000
H2        0.3358154      0.4644623      0.6919327       0.1141000
H2        0.4537659      0.4617157      0.5728226       0.1141000
H2        0.4566650      0.3441467      0.6332245       0.1141000
H2        0.3076630      0.3154907      0.5720139       0.1141000
H2        0.2776031      0.4636078      0.6311646       0.1141000
H2        0.4268723      0.4943619      0.5710297       0.1141000
H2        0.2782059      0.3456039      0.5723190       0.1141000
H2        0.3087540      0.4914093      0.6299744       0.1141000
H2        0.4251785      0.3155518      0.6323166       0.1141000
H2        0.4626236      0.3664093      0.5343170       0.1141000
H2        0.3287659      0.3073578      0.6690292       0.1141000
H2        0.2709122      0.4402618      0.5361710       0.1141000
H2        0.4028702      0.4994125      0.6679840       0.1141000
H2        0.4619217      0.4408035      0.6681290       0.1141000
H2        0.4029160      0.3097000      0.5354767       0.1141000
H2        0.2729568      0.3693085      0.6667328       0.1141000
H2        0.3316650      0.4984512      0.5370636       0.1141000
H2        0.2990570      0.5002670      0.5640640       0.1141000
H2        0.4617157      0.4702606      0.6380692       0.1141000
H2        0.4315186      0.3105927      0.5669250       0.1141000
H2        0.2720566      0.3377991      0.6382141       0.1141000
H2        0.3009109      0.3085022      0.6379166       0.1141000
H2        0.2697601      0.4714127      0.5640259       0.1141000
H2        0.4328156      0.4995575      0.6383743       0.1141000
H2        0.4608154      0.3394470      0.5669250       0.1141000
H2        0.3288269      0.3367004      0.6978378       0.1141000
H2        0.3316193      0.4691620      0.5082245       0.1141000
H2        0.4326630      0.4404678      0.6970291       0.1141000
H2        0.4025726      0.3385925      0.5061646       0.1141000
H2        0.3018570      0.3693466      0.6960297       0.1141000
H2        0.4031601      0.4705582      0.6972809       0.1141000
H2        0.4338150      0.3664093      0.5049744       0.1141000
H2        0.3001633      0.4406128      0.5073166       0.1141000
H2        0.7037964      0.6823730      0.2939987       0.1141000
H2        0.6459274      0.5652771      0.4111557       0.1141000
H2        0.5279312      0.6244736      0.2929993       0.1141000
H2        0.5869370      0.5658188      0.2931442       0.1141000
H2        0.5279312      0.6847229      0.4104614       0.1141000
H2        0.6479874      0.7443314      0.2917023       0.1141000
H2        0.7066956      0.6234665      0.4120636       0.1141000
H2        0.6740875      0.6252670      0.4390640       0.1141000
H2        0.5866852      0.5952148      0.2629929       0.1141000
H2        0.5565338      0.6856232      0.4419098       0.1141000
H2        0.6470261      0.7128143      0.2631989       0.1141000
H2        0.6759415      0.6835175      0.2629013       0.1141000
H2        0.6447754      0.5964279      0.4390106       0.1141000
H2        0.5577850      0.6245117      0.2633057       0.1141000
H2        0.5858307      0.7144623      0.4419098       0.1141000
H2        0.7037964      0.7117157      0.3228073       0.1141000
H2        0.7066956      0.5941696      0.3832092       0.1141000
H2        0.5576782      0.5655212      0.3219986       0.1141000
H2        0.5276337      0.7136230      0.3811646       0.1141000
H2        0.6768799      0.7443771      0.3209991       0.1141000
H2        0.5282364      0.5956116      0.3223038       0.1141000
H2        0.6751938      0.5655670      0.3823166       0.1141000
H2        0.7126389      0.6164246      0.2843018       0.1141000
H2        0.5787811      0.5573730      0.4190140       0.1141000
H2        0.5209274      0.6902771      0.2861557       0.1141000
H2        0.6528854      0.7494278      0.4179688       0.1141000
H2        0.7119370      0.6908188      0.4181137       0.1141000
H2        0.6529312      0.5597229      0.2854462       0.1141000
H2        0.5229874      0.6193237      0.4167175       0.1141000
H2        0.5816803      0.7484818      0.2870483       0.1141000
H2        0.5490723      0.7502823      0.3140488       0.1141000
H2        0.7117386      0.7202759      0.3880692       0.1141000
H2        0.6815338      0.5606232      0.3169098       0.1141000
H2        0.5220871      0.5878143      0.3882141       0.1141000
H2        0.5509262      0.5585175      0.3879013       0.1141000
H2        0.5197754      0.7214279      0.3139954       0.1141000
H2        0.6828461      0.7495728      0.3883591       0.1141000
H2        0.7108459      0.5894623      0.3169098       0.1141000
H2        0.5788269      0.5867157      0.4478073       0.1141000
H2        0.5816345      0.7191696      0.2581940       0.1141000
H2        0.6826935      0.6904678      0.4470139       0.1141000
H2        0.6525726      0.5886230      0.2561493       0.1141000
H2        0.5518799      0.6193619      0.4460144       0.1141000
H2        0.6531754      0.7205887      0.4472656       0.1141000
H2        0.6838455      0.6164246      0.2549438       0.1141000
H2        0.5501785      0.6906281      0.2573013       0.1141000
H2        0.3376236      0.7414398      0.4093170       0.1141000
H2        0.4537659      0.6823730      0.2939987       0.1141000
H2        0.3959274      0.5652771      0.4111557       0.1141000
H2        0.2779160      0.6244736      0.2929993       0.1141000
H2        0.3369217      0.5658188      0.2931442       0.1141000
H2        0.2779160      0.6847229      0.4104614       0.1141000
H2        0.3979721      0.7443314      0.2917023       0.1141000
H2        0.4566650      0.6234665      0.4120636       0.1141000
H2        0.4240723      0.6252670      0.4390640       0.1141000
H2        0.3366699      0.5952148      0.2629929       0.1141000
H2        0.3065033      0.6856232      0.4419098       0.1141000
H2        0.3970108      0.7128143      0.2631989       0.1141000
H2        0.4259262      0.6835175      0.2629013       0.1141000
H2        0.3947754      0.5964279      0.4390106       0.1141000
H2        0.3077545      0.6245117      0.2633057       0.1141000
H2        0.3358154      0.7144623      0.4419098       0.1141000
H2        0.4537659      0.7117157      0.3228073       0.1141000
H2        0.4566650      0.5941696      0.3832092       0.1141000
H2        0.3076630      0.5655212      0.3219986       0.1141000
H2        0.2776031      0.7136230      0.3811646       0.1141000
H2        0.4268723      0.7443771      0.3209991       0.1141000
H2        0.2782059      0.5956116      0.3223038       0.1141000
H2        0.3087540      0.7414398      0.3799591       0.1141000
H2        0.4251785      0.5655670      0.3823166       0.1141000
H2        0.4626236      0.6164246      0.2843018       0.1141000
H2        0.3287659      0.5573730      0.4190140       0.1141000
H2        0.2709122      0.6902771      0.2861557       0.1141000
H2        0.4028702      0.7494278      0.4179688       0.1141000
H2        0.4619217      0.6908188      0.4181137       0.1141000
H2        0.4029160      0.5597229      0.2854462       0.1141000
H2        0.2729568      0.6193237      0.4167175       0.1141000
H2        0.3316650      0.7484818      0.2870483       0.1141000
H2        0.2990570      0.7502823      0.3140488       0.1141000
H2        0.4617157      0.7202759      0.3880692       0.1141000
H2        0.4315186      0.5606232      0.3169098       0.1141000
H2        0.2720566      0.5878143      0.3882141       0.1141000
H2        0.3009109      0.5585175      0.3879013       0.1141000
H2        0.2697601      0.7214279      0.3139954       0.1141000
H2        0.4328156      0.7495728      0.3883591       0.1141000
H2        0.4608154      0.5894623      0.3169098       0.1141000
H2        0.3288269      0.5867157      0.4478073       0.1141000
H2        0.3316193      0.7191696      0.2581940       0.1141000
H2        0.4326630      0.6904678      0.4470139       0.1141000
H2        0.4025726      0.5886230      0.2561493       0.1141000
H2        0.3018570      0.6193619      0.4460144       0.1141000
H2        0.4031601      0.7205887      0.4472656       0.1141000
H2        0.4338150      0.6164246      0.2549438       0.1141000
H2        0.3001633      0.6906281      0.2573013       0.1141000
H2        0.5876236      0.4914093      0.4093170       0.1141000
H2        0.7037964      0.4323578      0.2939987       0.1141000
H2        0.6459274      0.3152466      0.4111557       0.1141000
H2        0.5279312      0.3744583      0.2929993       0.1141000
H2        0.5869370      0.3158035      0.2931442       0.1141000
H2        0.5279312      0.4347153      0.4104614       0.1141000
H2        0.6479874      0.4943085      0.2917023       0.1141000
H2        0.7066956      0.3734512      0.4120636       0.1141000
H2        0.6740875      0.3752518      0.4390640       0.1141000
H2        0.5866852      0.3451996      0.2629929       0.1141000
H2        0.5565338      0.4356079      0.4419098       0.1141000
H2        0.6470261      0.4628143      0.2631989       0.1141000
H2        0.6759415      0.4335022      0.2629013       0.1141000
H2        0.6447754      0.3463974      0.4390106       0.1141000
H2        0.5577850      0.3744965      0.2633057       0.1141000
H2        0.5858307      0.4644623      0.4419098       0.1141000
H2        0.7037964      0.4617157      0.3228073       0.1141000
H2        0.7066956      0.3441467      0.3832092       0.1141000
H2        0.5576782      0.3154907      0.3219986       0.1141000
H2        0.5276337      0.4636078      0.3811646       0.1141000
H2        0.6768799      0.4943619      0.3209991       0.1141000
H2        0.5282364      0.3456039      0.3223038       0.1141000
H2        0.5587845      0.4914093      0.3799591       0.1141000
H2        0.6751938      0.3155518      0.3823166       0.1141000
H2        0.7126389      0.3664093      0.2843018       0.1141000
H2        0.5787811      0.3073578      0.4190140       0.1141000
H2        0.5209274      0.4402618      0.2861557       0.1141000
H2        0.6528854      0.4994125      0.4179688       0.1141000
H2        0.7119370      0.4408035      0.4181137       0.1141000
H2        0.6529312      0.3097000      0.2854462       0.1141000
H2        0.5229874      0.3693085      0.4167175       0.1141000
H2        0.5816803      0.4984512      0.2870483       0.1141000
H2        0.5490723      0.5002670      0.3140488       0.1141000
H2        0.7117386      0.4702606      0.3880692       0.1141000
H2        0.6815338      0.3105927      0.3169098       0.1141000
H2        0.5220871      0.3377991      0.3882141       0.1141000
H2        0.5509262      0.3085022      0.3879013       0.1141000
H2        0.5197754      0.4714127      0.3139954       0.1141000
H2        0.6828461      0.4995575      0.3883591       0.1141000
H2        0.7108459      0.3394470      0.3169098       0.1141000
H2        0.5788269      0.3367004      0.4478073       0.1141000
H2        0.5816345      0.4691620      0.2581940       0.1141000
H2        0.6826935      0.4404678      0.4470139       0.1141000
H2        0.6525726      0.3385925      0.2561493       0.1141000
H2        0.5518799      0.3693466      0.4460144       0.1141000
H2        0.6531754      0.4705582      0.4472656       0.1141000
H2        0.6838455      0.3664093      0.2549438       0.1141000
H2        0.5501785      0.4406128      0.2573013       0.1141000
N_c        0.3441162      0.5200577      0.3970566       0.0000000
N_c        0.4824142      0.4260559      0.3064041       0.0000000
N_c        0.3885193      0.2874908      0.3974533       0.0000000
N_c        0.2499084      0.3817062      0.3062973       0.0000000
N_c        0.3443680      0.2877426      0.3062973       0.0000000
N_c        0.2500610      0.4268570      0.3971634       0.0000000
N_c        0.3892746      0.5213623      0.3061523       0.0000000
N_c        0.4836655      0.3819122      0.3975601       0.0000000
N_c        0.4118195      0.3817520      0.4677200       0.0000000
N_c        0.3440704      0.3586502      0.2350922       0.0000000
N_c        0.3209229      0.4269104      0.4689636       0.0000000
N_c        0.3892136      0.4495163      0.2353439       0.0000000
N_c        0.4122162      0.4261627      0.2350922       0.0000000
N_c        0.3884201      0.3588028      0.4676590       0.0000000
N_c        0.3210297      0.3820038      0.2353439       0.0000000
N_c        0.3442764      0.4499130      0.4689636       0.0000000
N_c        0.4824142      0.4494553      0.3293533       0.0000000
N_c        0.4836655      0.3585510      0.3745117       0.0000000
N_c        0.3210678      0.2875519      0.3293076       0.0000000
N_c        0.2498550      0.4498520      0.3737640       0.0000000
N_c        0.4123154      0.5213623      0.3295059       0.0000000
N_c        0.2501602      0.3586960      0.3296661       0.0000000
N_c        0.3211746      0.5200577      0.3736572       0.0000000
N_c        0.4118729      0.2877426      0.3744583       0.0000000
N_c        0.4691162      0.3950577      0.2720566       0.0000000
N_c        0.3574142      0.3010483      0.4314117       0.0000000
N_c        0.2635117      0.4124603      0.2724533       0.0000000
N_c        0.3749237      0.5067062      0.4313126       0.0000000
N_c        0.4693680      0.4128189      0.4313126       0.0000000
N_c        0.3750763      0.3018570      0.2721481       0.0000000
N_c        0.2642593      0.3963623      0.4311676       0.0000000
N_c        0.3587265      0.5069122      0.2725449       0.0000000
N_c        0.2867584      0.5067520      0.3426590       0.0000000
N_c        0.4690704      0.4836655      0.3601074       0.0000000
N_c        0.4459229      0.3018951      0.3439102       0.0000000
N_c        0.2642136      0.3245468      0.3603592       0.0000000
N_c        0.2871552      0.3011475      0.3601074       0.0000000
N_c        0.2634048      0.4838104      0.3426590       0.0000000
N_c        0.4460297      0.5070038      0.3603592       0.0000000
N_c        0.4692764      0.3249588      0.3439636       0.0000000
N_c        0.3574142      0.3244553      0.4543533       0.0000000
N_c        0.3586655      0.4835663      0.2494965       0.0000000
N_c        0.4460297      0.4125671      0.4543152       0.0000000
N_c        0.3748245      0.3248520      0.2487488       0.0000000
N_c        0.2872543      0.3963623      0.4545059       0.0000000
N_c        0.3751755      0.4837112      0.4546661       0.0000000
N_c        0.4461746      0.3950577      0.2486496       0.0000000
N_c        0.2868576      0.4127121      0.2494583       0.0000000
N_c        0.5941315      0.7700882      0.6470718       0.0000000
N_c        0.7324448      0.6760712      0.5564117       0.0000000
N_c        0.6385193      0.5375061      0.6474686       0.0000000
N_c        0.4999237      0.6317215      0.5563278       0.0000000
N_c        0.5943756      0.5377579      0.5563278       0.0000000
N_c        0.5000763      0.6768723      0.6471710       0.0000000
N_c        0.6392746      0.7713776      0.5561676       0.0000000
N_c        0.7336960      0.6319122      0.6475754       0.0000000
N_c        0.6618423      0.6317673      0.7177277       0.0000000
N_c        0.5940857      0.6086655      0.4851074       0.0000000
N_c        0.5709229      0.6769104      0.7189789       0.0000000
N_c        0.6392288      0.6995163      0.4853592       0.0000000
N_c        0.6622391      0.6761780      0.4851074       0.0000000
N_c        0.6384354      0.6088104      0.7176895       0.0000000
N_c        0.5710297      0.6320190      0.4853592       0.0000000
N_c        0.5942764      0.6999283      0.7189789       0.0000000
N_c        0.7324448      0.6994705      0.5793686       0.0000000
N_c        0.7336960      0.6085663      0.6245117       0.0000000
N_c        0.5710831      0.5375671      0.5793228       0.0000000
N_c        0.4998856      0.6998672      0.6237640       0.0000000
N_c        0.6623459      0.7713776      0.5795135       0.0000000
N_c        0.5001755      0.6087265      0.5796661       0.0000000
N_c        0.5711746      0.7700882      0.6236725       0.0000000
N_c        0.6618881      0.5377579      0.6244736       0.0000000
N_c        0.7191467      0.6450729      0.5220718       0.0000000
N_c        0.6074295      0.5510712      0.6814270       0.0000000
N_c        0.5135193      0.6624603      0.5224686       0.0000000
N_c        0.6249237      0.7567215      0.6813278       0.0000000
N_c        0.7193909      0.6628189      0.6813278       0.0000000
N_c        0.6250763      0.5518723      0.5221710       0.0000000
N_c        0.5142746      0.6463623      0.6811829       0.0000000
N_c        0.6087265      0.7569275      0.5225754       0.0000000
N_c        0.5367889      0.7567825      0.5926743       0.0000000
N_c        0.7190857      0.7336807      0.6101227       0.0000000
N_c        0.6959381      0.5519104      0.5939255       0.0000000
N_c        0.5142288      0.5745697      0.6103745       0.0000000
N_c        0.5371857      0.5511780      0.6101227       0.0000000
N_c        0.5134354      0.7338257      0.5926743       0.0000000
N_c        0.6960449      0.7570343      0.6103745       0.0000000
N_c        0.7192917      0.5749741      0.5939636       0.0000000
N_c        0.6074295      0.5744705      0.7043839       0.0000000
N_c        0.6086807      0.7335815      0.4995117       0.0000000
N_c        0.6960449      0.6625671      0.7043228       0.0000000
N_c        0.6248245      0.5748672      0.4987640       0.0000000
N_c        0.5372849      0.6463623      0.7045288       0.0000000
N_c        0.6251755      0.7337265      0.7046814       0.0000000
N_c        0.6961899      0.6450729      0.4986725       0.0000000
N_c        0.5368729      0.6627121      0.4994736       0.0000000
N_c        0.3441162      0.7700882      0.6470718       0.0000000
N_c        0.4824142      0.6760712      0.5564117       0.0000000
N_c        0.3885193      0.5375061      0.6474686       0.0000000
N_c        0.2499084      0.6317215      0.5563278       0.0000000
N_c        0.3443680      0.5377579      0.5563278       0.0000000
N_c        0.2500610      0.6768723      0.6471710       0.0000000
N_c        0.3892746      0.7713776      0.5561676       0.0000000
N_c        0.4836655      0.6319122      0.6475754       0.0000000
N_c        0.4118195      0.6317673      0.7177277       0.0000000
N_c        0.3440704      0.6086655      0.4851074       0.0000000
N_c        0.3209229      0.6769104      0.7189789       0.0000000
N_c        0.3892136      0.6995163      0.4853592       0.0000000
N_c        0.4122162      0.6761780      0.4851074       0.0000000
N_c        0.3884201      0.6088104      0.7176895       0.0000000
N_c        0.3210297      0.6320190      0.4853592       0.0000000
N_c        0.3442764      0.6999283      0.7189789       0.0000000
N_c        0.4824142      0.6994705      0.5793686       0.0000000
N_c        0.4836655      0.6085663      0.6245117       0.0000000
N_c        0.3210678      0.5375671      0.5793228       0.0000000
N_c        0.2498550      0.6998672      0.6237640       0.0000000
N_c        0.4123154      0.7713776      0.5795135       0.0000000
N_c        0.2501602      0.6087265      0.5796661       0.0000000
N_c        0.3211746      0.7700882      0.6236725       0.0000000
N_c        0.4118729      0.5377579      0.6244736       0.0000000
N_c        0.4691162      0.6450729      0.5220718       0.0000000
N_c        0.3574142      0.5510712      0.6814270       0.0000000
N_c        0.2635117      0.6624603      0.5224686       0.0000000
N_c        0.3749237      0.7567215      0.6813278       0.0000000
N_c        0.4693680      0.6628189      0.6813278       0.0000000
N_c        0.3750763      0.5518723      0.5221710       0.0000000
N_c        0.2642593      0.6463623      0.6811829       0.0000000
N_c        0.3587265      0.7569275      0.5225754       0.0000000
N_c        0.2867584      0.7567825      0.5926743       0.0000000
N_c        0.4690704      0.7336807      0.6101227       0.0000000
N_c        0.4459229      0.5519104      0.5939255       0.0000000
N_c        0.2642136      0.5745697      0.6103745       0.0000000
N_c        0.2871552      0.5511780      0.6101227       0.0000000
N_c        0.2634048      0.7338257      0.5926743       0.0000000
N_c        0.4460297      0.7570343      0.6103745       0.0000000
N_c        0.4692764      0.5749741      0.5939636       0.0000000
N_c        0.3574142      0.5744705      0.7043839       0.0000000
N_c        0.3586655      0.7335815      0.4995117       0.0000000
N_c        0.4460297      0.6625671      0.7043228       0.0000000
N_c        0.3748245      0.5748672      0.4987640       0.0000000
N_c        0.2872543      0.6463623      0.7045288       0.0000000
N_c        0.3751755      0.7337265      0.7046814       0.0000000
N_c        0.4461746      0.6450729      0.4986725       0.0000000
N_c        0.2868576      0.6627121      0.4994736       0.0000000
N_c        0.5941315      0.5200577      0.6470718       0.0000000
N_c        0.7324448      0.4260559      0.5564117       0.0000000
N_c        0.6385193      0.2874908      0.6474686       0.0000000
N_c        0.4999237      0.3817062      0.5563278       0.0000000
N_c        0.5943756      0.2877426      0.5563278       0.0000000
N_c        0.5000763      0.4268570      0.6471710       0.0000000
N_c        0.6392746      0.5213623      0.5561676       0.0000000
N_c        0.7336960      0.3819122      0.6475754       0.0000000
N_c        0.6618423      0.3817520      0.7177277       0.0000000
N_c        0.5940857      0.3586502      0.4851074       0.0000000
N_c        0.5709229      0.4269104      0.7189789       0.0000000
N_c        0.6392288      0.4495163      0.4853592       0.0000000
N_c        0.6622391      0.4261627      0.4851074       0.0000000
N_c        0.6384354      0.3588028      0.7176895       0.0000000
N_c        0.5710297      0.3820038      0.4853592       0.0000000
N_c        0.5942764      0.4499130      0.7189789       0.0000000
N_c        0.7324448      0.4494553      0.5793686       0.0000000
N_c        0.7336960      0.3585510      0.6245117       0.0000000
N_c        0.5710831      0.2875519      0.5793228       0.0000000
N_c        0.4998856      0.4498520      0.6237640       0.0000000
N_c        0.6623459      0.5213623      0.5795135       0.0000000
N_c        0.5001755      0.3586960      0.5796661       0.0000000
N_c        0.5711746      0.5200577      0.6236725       0.0000000
N_c        0.6618881      0.2877426      0.6244736       0.0000000
N_c        0.7191467      0.3950577      0.5220718       0.0000000
N_c        0.6074295      0.3010483      0.6814270       0.0000000
N_c        0.5135193      0.4124603      0.5224686       0.0000000
N_c        0.6249237      0.5067062      0.6813278       0.0000000
N_c        0.7193909      0.4128189      0.6813278       0.0000000
N_c        0.6250763      0.3018570      0.5221710       0.0000000
N_c        0.5142746      0.3963623      0.6811829       0.0000000
N_c        0.6087265      0.5069122      0.5225754       0.0000000
N_c        0.5367889      0.5067520      0.5926743       0.0000000
N_c        0.7190857      0.4836655      0.6101227       0.0000000
N_c        0.6959381      0.3018951      0.5939255       0.0000000
N_c        0.5142288      0.3245468      0.6103745       0.0000000
N_c        0.5371857      0.3011475      0.6101227       0.0000000
N_c        0.5134354      0.4838104      0.5926743       0.0000000
N_c        0.6960449      0.5070038      0.6103745       0.0000000
N_c        0.7192917      0.3249588      0.5939636       0.0000000
N_c        0.6074295      0.3244553      0.7043839       0.0000000
N_c        0.6086807      0.4835663      0.4995117       0.0000000
N_c        0.6960449      0.4125671      0.7043228       0.0000000
N_c        0.6248245      0.3248520      0.4987640       0.0000000
N_c        0.5372849      0.3963623      0.7045288       0.0000000
N_c        0.6251755      0.4837112      0.7046814       0.0000000
N_c        0.6961899      0.3950577      0.4986725       0.0000000
N_c        0.5368729      0.4127121      0.4994736       0.0000000
N_c        0.3441162      0.5200577      0.6470718       0.0000000
N_c        0.4824142      0.4260559      0.5564117       0.0000000
N_c        0.3885193      0.2874908      0.6474686       0.0000000
N_c        0.2499084      0.3817062      0.5563278       0.0000000
N_c        0.3443680      0.2877426      0.5563278       0.0000000
N_c        0.2500610      0.4268570      0.6471710       0.0000000
N_c        0.3892746      0.5213623      0.5561676       0.0000000
N_c        0.4836655      0.3819122      0.6475754       0.0000000
N_c        0.4118195      0.3817520      0.7177277       0.0000000
N_c        0.3440704      0.3586502      0.4851074       0.0000000
N_c        0.3209229      0.4269104      0.7189789       0.0000000
N_c        0.3892136      0.4495163      0.4853592       0.0000000
N_c        0.4122162      0.4261627      0.4851074       0.0000000
N_c        0.3884201      0.3588028      0.7176895       0.0000000
N_c        0.3210297      0.3820038      0.4853592       0.0000000
N_c        0.3442764      0.4499130      0.7189789       0.0000000
N_c        0.4824142      0.4494553      0.5793686       0.0000000
N_c        0.4836655      0.3585510      0.6245117       0.0000000
N_c        0.3210678      0.2875519      0.5793228       0.0000000
N_c        0.2498550      0.4498520      0.6237640       0.0000000
N_c        0.4123154      0.5213623      0.5795135       0.0000000
N_c        0.2501602      0.3586960      0.5796661       0.0000000
N_c        0.3211746      0.5200577      0.6236725       0.0000000
N_c        0.4118729      0.2877426      0.6244736       0.0000000
N_c        0.4691162      0.3950577      0.5220718       0.0000000
N_c        0.3574142      0.3010483      0.6814270       0.0000000
N_c        0.2635117      0.4124603      0.5224686       0.0000000
N_c        0.3749237      0.5067062      0.6813278       0.0000000
N_c        0.4693680      0.4128189      0.6813278       0.0000000
N_c        0.3750763      0.3018570      0.5221710       0.0000000
N_c        0.2642593      0.3963623      0.6811829       0.0000000
N_c        0.3587265      0.5069122      0.5225754       0.0000000
N_c        0.2867584      0.5067520      0.5926743       0.0000000
N_c        0.4690704      0.4836655      0.6101227       0.0000000
N_c        0.4459229      0.3018951      0.5939255       0.0000000
N_c        0.2642136      0.3245468      0.6103745       0.0000000
N_c        0.2871552      0.3011475      0.6101227       0.0000000
N_c        0.2634048      0.4838104      0.5926743       0.0000000
N_c        0.4460297      0.5070038      0.6103745       0.0000000
N_c        0.4692764      0.3249588      0.5939636       0.0000000
N_c        0.3574142      0.3244553      0.7043839       0.0000000
N_c        0.3586655      0.4835663      0.4995117       0.0000000
N_c        0.4460297      0.4125671      0.7043228       0.0000000
N_c        0.3748245      0.3248520      0.4987640       0.0000000
N_c        0.2872543      0.3963623      0.7045288       0.0000000
N_c        0.3751755      0.4837112      0.7046814       0.0000000
N_c        0.4461746      0.3950577      0.4986725       0.0000000
N_c        0.2868576      0.4127121      0.4994736       0.0000000
N_c        0.7324448      0.6760712      0.3064041       0.0000000
N_c        0.6385193      0.5375061      0.3974533       0.0000000
N_c        0.4999237      0.6317215      0.3062973       0.0000000
N_c        0.5943756      0.5377579      0.3062973       0.0000000
N_c        0.5000763      0.6768723      0.3971634       0.0000000
N_c        0.6392746      0.7713776      0.3061523       0.0000000
N_c        0.7336960      0.6319122      0.3975601       0.0000000
N_c        0.6618423      0.6317673      0.4677200       0.0000000
N_c        0.5940857      0.6086655      0.2350922       0.0000000
N_c        0.5709229      0.6769104      0.4689636       0.0000000
N_c        0.6392288      0.6995163      0.2353439       0.0000000
N_c        0.6622391      0.6761780      0.2350922       0.0000000
N_c        0.6384354      0.6088104      0.4676590       0.0000000
N_c        0.5710297      0.6320190      0.2353439       0.0000000
N_c        0.5942764      0.6999283      0.4689636       0.0000000
N_c        0.7324448      0.6994705      0.3293533       0.0000000
N_c        0.7336960      0.6085663      0.3745117       0.0000000
N_c        0.5710831      0.5375671      0.3293076       0.0000000
N_c        0.4998856      0.6998672      0.3737640       0.0000000
N_c        0.6623459      0.7713776      0.3295059       0.0000000
N_c        0.5001755      0.6087265      0.3296661       0.0000000
N_c        0.6618881      0.5377579      0.3744583       0.0000000
N_c        0.7191467      0.6450729      0.2720566       0.0000000
N_c        0.6074295      0.5510712      0.4314117       0.0000000
N_c        0.5135193      0.6624603      0.2724533       0.0000000
N_c        0.6249237      0.7567215      0.4313126       0.0000000
N_c        0.7193909      0.6628189      0.4313126       0.0000000
N_c        0.6250763      0.5518723      0.2721481       0.0000000
N_c        0.5142746      0.6463623      0.4311676       0.0000000
N_c        0.6087265      0.7569275      0.2725449       0.0000000
N_c        0.5367889      0.7567825      0.3426590       0.0000000
N_c        0.7190857      0.7336807      0.3601074       0.0000000
N_c        0.6959381      0.5519104      0.3439102       0.0000000
N_c        0.5142288      0.5745697      0.3603592       0.0000000
N_c        0.5371857      0.5511780      0.3601074       0.0000000
N_c        0.5134354      0.7338257      0.3426590       0.0000000
N_c        0.6960449      0.7570343      0.3603592       0.0000000
N_c        0.7192917      0.5749741      0.3439636       0.0000000
N_c        0.6074295      0.5744705      0.4543533       0.0000000
N_c        0.6086807      0.7335815      0.2494965       0.0000000
N_c        0.6960449      0.6625671      0.4543152       0.0000000
N_c        0.6248245      0.5748672      0.2487488       0.0000000
N_c        0.5372849      0.6463623      0.4545059       0.0000000
N_c        0.6251755      0.7337265      0.4546661       0.0000000
N_c        0.6961899      0.6450729      0.2486496       0.0000000
N_c        0.5368729      0.6627121      0.2494583       0.0000000
N_c        0.3441162      0.7700882      0.3970566       0.0000000
N_c        0.4824142      0.6760712      0.3064041       0.0000000
N_c        0.3885193      0.5375061      0.3974533       0.0000000
N_c        0.2499084      0.6317215      0.3062973       0.0000000
N_c        0.3443680      0.5377579      0.3062973       0.0000000
N_c        0.2500610      0.6768723      0.3971634       0.0000000
N_c        0.3892746      0.7713776      0.3061523       0.0000000
N_c        0.4836655      0.6319122      0.3975601       0.0000000
N_c        0.4118195      0.6317673      0.4677200       0.0000000
N_c        0.3440704      0.6086655      0.2350922       0.0000000
N_c        0.3209229      0.6769104      0.4689636       0.0000000
N_c        0.3892136      0.6995163      0.2353439       0.0000000
N_c        0.4122162      0.6761780      0.2350922       0.0000000
N_c        0.3884201      0.6088104      0.4676590       0.0000000
N_c        0.3210297      0.6320190      0.2353439       0.0000000
N_c        0.3442764      0.6999283      0.4689636       0.0000000
N_c        0.4824142      0.6994705      0.3293533       0.0000000
N_c        0.4836655      0.6085663      0.3745117       0.0000000
N_c        0.3210678      0.5375671      0.3293076       0.0000000
N_c        0.2498550      0.6998672      0.3737640       0.0000000
N_c        0.4123154      0.7713776      0.3295059       0.0000000
N_c        0.2501602      0.6087265      0.3296661       0.0000000
N_c        0.3211746      0.7700882      0.3736572       0.0000000
N_c        0.4118729      0.5377579      0.3744583       0.0000000
N_c        0.4691162      0.6450729      0.2720566       0.0000000
N_c        0.3574142      0.5510712      0.4314117       0.0000000
N_c        0.2635117      0.6624603      0.2724533       0.0000000
N_c        0.3749237      0.7567215      0.4313126       0.0000000
N_c        0.4693680      0.6628189      0.4313126       0.0000000
N_c        0.3750763      0.5518723      0.2721481       0.0000000
N_c        0.2642593      0.6463623      0.4311676       0.0000000
N_c        0.3587265      0.7569275      0.2725449       0.0000000
N_c        0.2867584      0.7567825      0.3426590       0.0000000
N_c        0.4690704      0.7336807      0.3601074       0.0000000
N_c        0.4459229      0.5519104      0.3439102       0.0000000
N_c        0.2642136      0.5745697      0.3603592       0.0000000
N_c        0.2871552      0.5511780      0.3601074       0.0000000
N_c        0.2634048      0.7338257      0.3426590       0.0000000
N_c        0.4460297      0.7570343      0.3603592       0.0000000
N_c        0.4692764      0.5749741      0.3439636       0.0000000
N_c        0.3574142      0.5744705      0.4543533       0.0000000
N_c        0.3586655      0.7335815      0.2494965       0.0000000
N_c        0.4460297      0.6625671      0.4543152       0.0000000
N_c        0.3748245      0.5748672      0.2487488       0.0000000
N_c        0.2872543      0.6463623      0.4545059       0.0000000
N_c        0.3751755      0.7337265      0.4546661       0.0000000
N_c        0.4461746      0.6450729      0.2486496       0.0000000
N_c        0.2868576      0.6627121      0.2494583       0.0000000
N_c        0.5941315      0.5200577      0.3970566       0.0000000
N_c        0.7324448      0.4260559      0.3064041       0.0000000
N_c        0.6385193      0.2874908      0.3974533       0.0000000
N_c        0.4999237      0.3817062      0.3062973       0.0000000
N_c        0.5943756      0.2877426      0.3062973       0.0000000
N_c        0.5000763      0.4268570      0.3971634       0.0000000
N_c        0.6392746      0.5213623      0.3061523       0.0000000
N_c        0.7336960      0.3819122      0.3975601       0.0000000
N_c        0.6618423      0.3817520      0.4677200       0.0000000
N_c        0.5940857      0.3586502      0.2350922       0.0000000
N_c        0.5709229      0.4269104      0.4689636       0.0000000
N_c        0.6392288      0.4495163      0.2353439       0.0000000
N_c        0.6622391      0.4261627      0.2350922       0.0000000
N_c        0.6384354      0.3588028      0.4676590       0.0000000
N_c        0.5710297      0.3820038      0.2353439       0.0000000
N_c        0.5942764      0.4499130      0.4689636       0.0000000
N_c        0.7324448      0.4494553      0.3293533       0.0000000
N_c        0.7336960      0.3585510      0.3745117       0.0000000
N_c        0.5710831      0.2875519      0.3293076       0.0000000
N_c        0.4998856      0.4498520      0.3737640       0.0000000
N_c        0.6623459      0.5213623      0.3295059       0.0000000
N_c        0.5001755      0.3586960      0.3296661       0.0000000
N_c        0.5711746      0.5200577      0.3736572       0.0000000
N_c        0.6618881      0.2877426      0.3744583       0.0000000
N_c        0.7191467      0.3950577      0.2720566       0.0000000
N_c        0.6074295      0.3010483      0.4314117       0.0000000
N_c        0.5135193      0.4124603      0.2724533       0.0000000
N_c        0.6249237      0.5067062      0.4313126       0.0000000
N_c        0.7193909      0.4128189      0.4313126       0.0000000
N_c        0.6250763      0.3018570      0.2721481       0.0000000
N_c        0.5142746      0.3963623      0.4311676       0.0000000
N_c        0.6087265      0.5069122      0.2725449       0.0000000
N_c        0.5367889      0.5067520      0.3426590       0.0000000
N_c        0.7190857      0.4836655      0.3601074       0.0000000
N_c        0.6959381      0.3018951      0.3439102       0.0000000
N_c        0.5142288      0.3245468      0.3603592       0.0000000
N_c        0.5371857      0.3011475      0.3601074       0.0000000
N_c        0.5134354      0.4838104      0.3426590       0.0000000
N_c        0.6960449      0.5070038      0.3603592       0.0000000
N_c        0.7192917      0.3249588      0.3439636       0.0000000
N_c        0.6074295      0.3244553      0.4543533       0.0000000
N_c        0.6086807      0.4835663      0.2494965       0.0000000
N_c        0.6960449      0.4125671      0.4543152       0.0000000
N_c        0.6248245      0.3248520      0.2487488       0.0000000
N_c        0.5372849      0.3963623      0.4545059       0.0000000
N_c        0.6251755      0.4837112      0.4546661       0.0000000
N_c        0.6961899      0.3950577      0.2486496       0.0000000
N_c        0.5368729      0.4127121      0.2494583       0.0000000
C1        0.3360672      0.2801971      0.3819580       0.4375000
C1        0.2425537      0.4343567      0.3213501       0.4375000
C1        0.3964691      0.5277634      0.3820648       0.4375000
C1        0.4901276      0.3738937      0.3217010       0.4375000
C1        0.3364792      0.5277634      0.3214951       0.4375000
C1        0.4901276      0.4344635      0.3817062       0.4375000
C1        0.3966141      0.2808990      0.3219528       0.4375000
C1        0.3967209      0.3737030      0.2277985       0.4375000
C1        0.3362732      0.3740997      0.4753494       0.4375000
C1        0.3366699      0.4342575      0.2285004       0.4375000
C1        0.3968201      0.4341049      0.4753494       0.4375000
C1        0.4610672      0.4052124      0.2570038       0.4375000
C1        0.3675690      0.3093414      0.4463654       0.4375000
C1        0.2714539      0.4027634      0.2570496       0.4375000
C1        0.3651276      0.4989090      0.4467010       0.4375000
C1        0.4614792      0.4027634      0.4465103       0.4375000
C1        0.3651276      0.3094482      0.2566986       0.4375000
C1        0.2715530      0.4059143      0.4469528       0.4375000
C1        0.3682785      0.4993668      0.2568588       0.4375000
C1        0.2717056      0.4987640      0.3528137       0.4375000
C1        0.4612732      0.4991150      0.3503494       0.4375000
C1        0.4617157      0.3092575      0.3535614       0.4375000
C1        0.2718048      0.3091507      0.3503494       0.4375000
C1        0.5860825      0.5302124      0.6319733       0.4375000
C1        0.4925842      0.6843719      0.5713654       0.4375000
C1        0.6464844      0.7777786      0.6320648       0.4375000
C1        0.7401428      0.6239243      0.5717163       0.4375000
C1        0.5864792      0.7777786      0.5715103       0.4375000
C1        0.7401428      0.6844788      0.6317215       0.4375000
C1        0.6466293      0.5309143      0.5719681       0.4375000
C1        0.4932785      0.6243210      0.6318741       0.4375000
C1        0.6467361      0.6237183      0.4778137       0.4375000
C1        0.5862885      0.6241150      0.7253799       0.4375000
C1        0.5866852      0.6842728      0.4785156       0.4375000
C1        0.6468353      0.6841202      0.7253799       0.4375000
C1        0.7110977      0.6552200      0.5070190       0.4375000
C1        0.6175842      0.5593719      0.6963806       0.4375000
C1        0.5214844      0.6527634      0.5070648       0.4375000
C1        0.6151276      0.7489243      0.6967316       0.4375000
C1        0.7114944      0.6527634      0.6965256       0.4375000
C1        0.6151276      0.5594788      0.5067215       0.4375000
C1        0.5215836      0.6559143      0.6969833       0.4375000
C1        0.6182785      0.7493820      0.5068741       0.4375000
C1        0.5217361      0.7487793      0.6028290       0.4375000
C1        0.7112885      0.7491302      0.6003647       0.4375000
C1        0.7117386      0.5592728      0.6035767       0.4375000
C1        0.5218353      0.5591660      0.6003647       0.4375000
C1        0.3360672      0.5302124      0.6319733       0.4375000
C1        0.2425537      0.6843719      0.5713654       0.4375000
C1        0.3964691      0.7777786      0.6320648       0.4375000
C1        0.4901276      0.6239243      0.5717163       0.4375000
C1        0.3364792      0.7777786      0.5715103       0.4375000
C1        0.4901276      0.6844788      0.6317215       0.4375000
C1        0.3966141      0.5309143      0.5719681       0.4375000
C1        0.2432632      0.6243210      0.6318741       0.4375000
C1        0.3967209      0.6237183      0.4778137       0.4375000
C1        0.3362732      0.6241150      0.7253799       0.4375000
C1        0.3366699      0.6842728      0.4785156       0.4375000
C1        0.3968201      0.6841202      0.7253799       0.4375000
C1        0.4610672      0.6552200      0.5070190       0.4375000
C1        0.3675690      0.5593719      0.6963806       0.4375000
C1        0.2714539      0.6527634      0.5070648       0.4375000
C1        0.3651276      0.7489243      0.6967316       0.4375000
C1        0.4614792      0.6527634      0.6965256       0.4375000
C1        0.3651276      0.5594788      0.5067215       0.4375000
C1        0.2715530      0.6559143      0.6969833       0.4375000
C1        0.3682785      0.7493820      0.5068741       0.4375000
C1        0.2717056      0.7487793      0.6028290       0.4375000
C1        0.4612732      0.7491302      0.6003647       0.4375000
C1        0.4617157      0.5592728      0.6035767       0.4375000
C1        0.2718048      0.5591660      0.6003647       0.4375000
C1        0.5860825      0.2801971      0.6319733       0.4375000
C1        0.4925842      0.4343567      0.5713654       0.4375000
C1        0.6464844      0.5277634      0.6320648       0.4375000
C1        0.7401428      0.3738937      0.5717163       0.4375000
C1        0.5864792      0.5277634      0.5715103       0.4375000
C1        0.7401428      0.4344635      0.6317215       0.4375000
C1        0.6466293      0.2808990      0.5719681       0.4375000
C1        0.4932785      0.3742905      0.6318741       0.4375000
C1        0.6467361      0.3737030      0.4778137       0.4375000
C1        0.5862885      0.3740997      0.7253799       0.4375000
C1        0.5866852      0.4342575      0.4785156       0.4375000
C1        0.6468353      0.4341049      0.7253799       0.4375000
C1        0.7110977      0.4052124      0.5070190       0.4375000
C1        0.6175842      0.3093414      0.6963806       0.4375000
C1        0.5214844      0.4027634      0.5070648       0.4375000
C1        0.6151276      0.4989090      0.6967316       0.4375000
C1        0.7114944      0.4027634      0.6965256       0.4375000
C1        0.6151276      0.3094482      0.5067215       0.4375000
C1        0.5215836      0.4059143      0.6969833       0.4375000
C1        0.6182785      0.4993668      0.5068741       0.4375000
C1        0.5217361      0.4987640      0.6028290       0.4375000
C1        0.7112885      0.4991150      0.6003647       0.4375000
C1        0.7117386      0.3092575      0.6035767       0.4375000
C1        0.5218353      0.3091507      0.6003647       0.4375000
C1        0.3360672      0.2801971      0.6319733       0.4375000
C1        0.2425537      0.4343567      0.5713654       0.4375000
C1        0.3964691      0.5277634      0.6320648       0.4375000
C1        0.4901276      0.3738937      0.5717163       0.4375000
C1        0.3364792      0.5277634      0.5715103       0.4375000
C1        0.4901276      0.4344635      0.6317215       0.4375000
C1        0.3966141      0.2808990      0.5719681       0.4375000
C1        0.2432632      0.3742905      0.6318741       0.4375000
C1        0.3967209      0.3737030      0.4778137       0.4375000
C1        0.3362732      0.3740997      0.7253799       0.4375000
C1        0.3366699      0.4342575      0.4785156       0.4375000
C1        0.3968201      0.4341049      0.7253799       0.4375000
C1        0.4610672      0.4052124      0.5070190       0.4375000
C1        0.3675690      0.3093414      0.6963806       0.4375000
C1        0.2714539      0.4027634      0.5070648       0.4375000
C1        0.3651276      0.4989090      0.6967316       0.4375000
C1        0.4614792      0.4027634      0.6965256       0.4375000
C1        0.3651276      0.3094482      0.5067215       0.4375000
C1        0.2715530      0.4059143      0.6969833       0.4375000
C1        0.3682785      0.4993668      0.5068741       0.4375000
C1        0.2717056      0.4987640      0.6028290       0.4375000
C1        0.4612732      0.4991150      0.6003647       0.4375000
C1        0.4617157      0.3092575      0.6035767       0.4375000
C1        0.2718048      0.3091507      0.6003647       0.4375000
C1        0.5860825      0.5302124      0.3819580       0.4375000
C1        0.4925842      0.6843719      0.3213501       0.4375000
C1        0.6464844      0.7777786      0.3820648       0.4375000
C1        0.7401428      0.6239243      0.3217010       0.4375000
C1        0.5864792      0.7777786      0.3214951       0.4375000
C1        0.7401428      0.6844788      0.3817062       0.4375000
C1        0.6466293      0.5309143      0.3219528       0.4375000
C1        0.4932785      0.6243210      0.3818588       0.4375000
C1        0.6467361      0.6237183      0.2277985       0.4375000
C1        0.5862885      0.6241150      0.4753494       0.4375000
C1        0.6468353      0.6841202      0.4753494       0.4375000
C1        0.7110977      0.6552200      0.2570038       0.4375000
C1        0.6175842      0.5593719      0.4463654       0.4375000
C1        0.5214844      0.6527634      0.2570496       0.4375000
C1        0.6151276      0.7489243      0.4467010       0.4375000
C1        0.7114944      0.6527634      0.4465103       0.4375000
C1        0.6151276      0.5594788      0.2566986       0.4375000
C1        0.5215836      0.6559143      0.4469528       0.4375000
C1        0.6182785      0.7493820      0.2568588       0.4375000
C1        0.5217361      0.7487793      0.3528137       0.4375000
C1        0.7112885      0.7491302      0.3503494       0.4375000
C1        0.7117386      0.5592728      0.3535614       0.4375000
C1        0.5218353      0.5591660      0.3503494       0.4375000
C1        0.3360672      0.5302124      0.3819580       0.4375000
C1        0.2425537      0.6843719      0.3213501       0.4375000
C1        0.3964691      0.7777786      0.3820648       0.4375000
C1        0.4901276      0.6239243      0.3217010       0.4375000
C1        0.3364792      0.7777786      0.3214951       0.4375000
C1        0.4901276      0.6844788      0.3817062       0.4375000
C1        0.3966141      0.5309143      0.3219528       0.4375000
C1        0.2432632      0.6243210      0.3818588       0.4375000
C1        0.3967209      0.6237183      0.2277985       0.4375000
C1        0.3362732      0.6241150      0.4753494       0.4375000
C1        0.3366699      0.6842728      0.2285004       0.4375000
C1        0.3968201      0.6841202      0.4753494       0.4375000
C1        0.4610672      0.6552200      0.2570038       0.4375000
C1        0.3675690      0.5593719      0.4463654       0.4375000
C1        0.2714539      0.6527634      0.2570496       0.4375000
C1        0.3651276      0.7489243      0.4467010       0.4375000
C1        0.4614792      0.6527634      0.4465103       0.4375000
C1        0.3651276      0.5594788      0.2566986       0.4375000
C1        0.2715530      0.6559143      0.4469528       0.4375000
C1        0.3682785      0.7493820      0.2568588       0.4375000
C1        0.2717056      0.7487793      0.3528137       0.4375000
C1        0.4612732      0.7491302      0.3503494       0.4375000
C1        0.4617157      0.5592728      0.3535614       0.4375000
C1        0.2718048      0.5591660      0.3503494       0.4375000
C1        0.5860825      0.2801971      0.3819580       0.4375000
C1        0.4925842      0.4343567      0.3213501       0.4375000
C1        0.6464844      0.5277634      0.3820648       0.4375000
C1        0.7401428      0.3738937      0.3217010       0.4375000
C1        0.5864792      0.5277634      0.3214951       0.4375000
C1        0.7401428      0.4344635      0.3817062       0.4375000
C1        0.6466293      0.2808990      0.3219528       0.4375000
C1        0.4932785      0.3742905      0.3818588       0.4375000
C1        0.6467361      0.3737030      0.2277985       0.4375000
C1        0.5862885      0.3740997      0.4753494       0.4375000
C1        0.5866852      0.4342575      0.2285004       0.4375000
C1        0.6468353      0.4341049      0.4753494       0.4375000
C1        0.7110977      0.4052124      0.2570038       0.4375000
C1        0.6175842      0.3093414      0.4463654       0.4375000
C1        0.5214844      0.4027634      0.2570496       0.4375000
C1        0.6151276      0.4989090      0.4467010       0.4375000
C1        0.7114944      0.4027634      0.4465103       0.4375000
C1        0.6151276      0.3094482      0.2566986       0.4375000
C1        0.5215836      0.4059143      0.4469528       0.4375000
C1        0.6182785      0.4993668      0.2568588       0.4375000
C1        0.5217361      0.4987640      0.3528137       0.4375000
C1        0.7112885      0.4991150      0.3503494       0.4375000
C1        0.7117386      0.3092575      0.3535614       0.4375000
C1        0.5218353      0.3091507      0.3503494       0.4375000
C3        0.3429642      0.2998505      0.3752670      -0.4606000
C3        0.2622147      0.4276657      0.3282700      -0.4606000
C3        0.3891296      0.5086670      0.3743057      -0.4606000
C3        0.4708176      0.3812561      0.3290634      -0.4606000
C3        0.3438644      0.5085068      0.3289108      -0.4606000
C3        0.4710236      0.4267044      0.3743668      -0.4606000
C3        0.3883133      0.2994995      0.3300018      -0.4606000
C3        0.3900223      0.3806076      0.2474518      -0.4606000
C3        0.3437195      0.3815613      0.4561691      -0.4606000
C3        0.3447800      0.4259567      0.2471466      -0.4606000
C3        0.3890686      0.4267654      0.4562531      -0.4606000
C3        0.4679642      0.4249115      0.2502975      -0.4606000
C3        0.3872147      0.3026505      0.4532700      -0.4606000
C3        0.2641144      0.3836060      0.2492905      -0.4606000
C3        0.3458633      0.5062561      0.4541016      -0.4606000
C3        0.4688644      0.3835068      0.4539108      -0.4606000
C3        0.3460236      0.3017044      0.2493515      -0.4606000
C3        0.2633133      0.4245148      0.4550018      -0.4606000
C3        0.3868713      0.5074158      0.2486038      -0.4606000
C3        0.2650070      0.5056076      0.3725128      -0.4606000
C3        0.4686737      0.5065613      0.3311691      -0.4606000
C3        0.4697189      0.3009567      0.3721161      -0.4606000
C3        0.2640686      0.3017960      0.3312531      -0.4606000
C3        0.5929794      0.5498657      0.6252670      -0.4606000
C3        0.5122299      0.6776657      0.5782700      -0.4606000
C3        0.6391296      0.7586823      0.6243210      -0.4606000
C3        0.7208328      0.6312714      0.5790787      -0.4606000
C3        0.5938797      0.7585373      0.5789108      -0.4606000
C3        0.7210388      0.6767197      0.6243668      -0.4606000
C3        0.6383286      0.5495148      0.5800171      -0.4606000
C3        0.5118713      0.6324158      0.6236191      -0.4606000
C3        0.6400223      0.6306229      0.4974670      -0.4606000
C3        0.5937347      0.6315613      0.7061768      -0.4606000
C3        0.5947800      0.6759720      0.4971771      -0.4606000
C3        0.6390839      0.6767654      0.7062836      -0.4606000
C3        0.7179947      0.6749268      0.5003204      -0.4606000
C3        0.6372299      0.5526657      0.7032776      -0.4606000
C3        0.5141296      0.6336212      0.4993210      -0.4606000
C3        0.5958786      0.7562866      0.7041321      -0.4606000
C3        0.7188950      0.6335220      0.7039261      -0.4606000
C3        0.5960236      0.5517197      0.4993668      -0.4606000
C3        0.5133286      0.6745148      0.7050323      -0.4606000
C3        0.6368713      0.7574310      0.4986191      -0.4606000
C3        0.5150223      0.7556381      0.6225128      -0.4606000
C3        0.7186890      0.7565765      0.5811691      -0.4606000
C3        0.7197495      0.5509720      0.6221161      -0.4606000
C3        0.5140839      0.5518265      0.5812683      -0.4606000
C3        0.3429642      0.5498657      0.6252670      -0.4606000
C3        0.2622147      0.6776657      0.5782700      -0.4606000
C3        0.3891296      0.7586823      0.6243210      -0.4606000
C3        0.4708176      0.6312714      0.5790787      -0.4606000
C3        0.3438644      0.7585373      0.5789108      -0.4606000
C3        0.4710236      0.6767197      0.6243668      -0.4606000
C3        0.3883133      0.5495148      0.5800171      -0.4606000
C3        0.2618637      0.6324158      0.6236191      -0.4606000
C3        0.3900223      0.6306229      0.4974670      -0.4606000
C3        0.3437195      0.6315613      0.7061768      -0.4606000
C3        0.3447800      0.6759720      0.4971771      -0.4606000
C3        0.3890686      0.6767654      0.7062836      -0.4606000
C3        0.4679642      0.6749268      0.5003204      -0.4606000
C3        0.3872147      0.5526657      0.7032776      -0.4606000
C3        0.2641144      0.6336212      0.4993210      -0.4606000
C3        0.3458633      0.7562866      0.7041321      -0.4606000
C3        0.4688644      0.6335220      0.7039261      -0.4606000
C3        0.3460236      0.5517197      0.4993668      -0.4606000
C3        0.2633133      0.6745148      0.7050323      -0.4606000
C3        0.3868713      0.7574310      0.4986191      -0.4606000
C3        0.2650070      0.7556381      0.6225128      -0.4606000
C3        0.4686737      0.7565765      0.5811691      -0.4606000
C3        0.4697189      0.5509720      0.6221161      -0.4606000
C3        0.2640686      0.5518265      0.5812683      -0.4606000
C3        0.5929794      0.2998505      0.6252670      -0.4606000
C3        0.5122299      0.4276657      0.5782700      -0.4606000
C3        0.6391296      0.5086670      0.6243210      -0.4606000
C3        0.7208328      0.3812561      0.5790787      -0.4606000
C3        0.5938797      0.5085068      0.5789108      -0.4606000
C3        0.7210388      0.4267044      0.6243668      -0.4606000
C3        0.6383286      0.2994995      0.5800171      -0.4606000
C3        0.5118713      0.3824158      0.6236191      -0.4606000
C3        0.6400223      0.3806076      0.4974670      -0.4606000
C3        0.5937347      0.3815613      0.7061768      -0.4606000
C3        0.5947800      0.4259567      0.4971771      -0.4606000
C3        0.6390839      0.4267654      0.7062836      -0.4606000
C3        0.7179947      0.4249115      0.5003204      -0.4606000
C3        0.6372299      0.3026505      0.7032776      -0.4606000
C3        0.5141296      0.3836060      0.4993210      -0.4606000
C3        0.5958786      0.5062561      0.7041321      -0.4606000
C3        0.7188950      0.3835068      0.7039261      -0.4606000
C3        0.5960236      0.3017044      0.4993668      -0.4606000
C3        0.5133286      0.4245148      0.7050323      -0.4606000
C3        0.6368713      0.5074158      0.4986191      -0.4606000
C3        0.5150223      0.5056076      0.6225128      -0.4606000
C3        0.7186890      0.5065613      0.5811691      -0.4606000
C3        0.7197495      0.3009567      0.6221161      -0.4606000
C3        0.5140839      0.3017960      0.5812683      -0.4606000
C3        0.3429642      0.2998505      0.6252670      -0.4606000
C3        0.2622147      0.4276657      0.5782700      -0.4606000
C3        0.3891296      0.5086670      0.6243210      -0.4606000
C3        0.4708176      0.3812561      0.5790787      -0.4606000
C3        0.3438644      0.5085068      0.5789108      -0.4606000
C3        0.4710236      0.4267044      0.6243668      -0.4606000
C3        0.3883133      0.2994995      0.5800171      -0.4606000
C3        0.2618637      0.3824158      0.6236191      -0.4606000
C3        0.3900223      0.3806076      0.4974670      -0.4606000
C3        0.3437195      0.3815613      0.7061768      -0.4606000
C3        0.3447800      0.4259567      0.4971771      -0.4606000
C3        0.3890686      0.4267654      0.7062836      -0.4606000
C3        0.4679642      0.4249115      0.5003204      -0.4606000
C3        0.3872147      0.3026505      0.7032776      -0.4606000
C3        0.2641144      0.3836060      0.4993210      -0.4606000
C3        0.3458633      0.5062561      0.7041321      -0.4606000
C3        0.4688644      0.3835068      0.7039261      -0.4606000
C3        0.3460236      0.3017044      0.4993668      -0.4606000
C3        0.2633133      0.4245148      0.7050323      -0.4606000
C3        0.3868713      0.5074158      0.4986191      -0.4606000
C3        0.2650070      0.5056076      0.6225128      -0.4606000
C3        0.4686737      0.5065613      0.5811691      -0.4606000
C3        0.4697189      0.3009567      0.6221161      -0.4606000
C3        0.2640686      0.3017960      0.5812683      -0.4606000
C3        0.5929794      0.5498657      0.3752670      -0.4606000
C3        0.5122299      0.6776657      0.3282700      -0.4606000
C3        0.6391296      0.7586823      0.3743057      -0.4606000
C3        0.7208328      0.6312714      0.3290634      -0.4606000
C3        0.5938797      0.7585373      0.3289108      -0.4606000
C3        0.7210388      0.6767197      0.3743668      -0.4606000
C3        0.6383286      0.5495148      0.3300018      -0.4606000
C3        0.5118713      0.6324158      0.3736191      -0.4606000
C3        0.6400223      0.6306229      0.2474518      -0.4606000
C3        0.5937347      0.6315613      0.4561691      -0.4606000
C3        0.6390839      0.6767654      0.4562531      -0.4606000
C3        0.7179947      0.6749268      0.2502975      -0.4606000
C3        0.6372299      0.5526657      0.4532700      -0.4606000
C3        0.5141296      0.6336212      0.2492905      -0.4606000
C3        0.5958786      0.7562866      0.4541016      -0.4606000
C3        0.7188950      0.6335220      0.4539108      -0.4606000
C3        0.5960236      0.5517197      0.2493515      -0.4606000
C3        0.5133286      0.6745148      0.4550018      -0.4606000
C3        0.6368713      0.7574310      0.2486038      -0.4606000
C3        0.5150223      0.7556381      0.3725128      -0.4606000
C3        0.7186890      0.7565765      0.3311691      -0.4606000
C3        0.7197495      0.5509720      0.3721161      -0.4606000
C3        0.5140839      0.5518265      0.3312531      -0.4606000
C3        0.3429642      0.5498657      0.3752670      -0.4606000
C3        0.2622147      0.6776657      0.3282700      -0.4606000
C3        0.3891296      0.7586823      0.3743057      -0.4606000
C3        0.4708176      0.6312714      0.3290634      -0.4606000
C3        0.3438644      0.7585373      0.3289108      -0.4606000
C3        0.4710236      0.6767197      0.3743668      -0.4606000
C3        0.3883133      0.5495148      0.3300018      -0.4606000
C3        0.2618637      0.6324158      0.3736191      -0.4606000
C3        0.3900223      0.6306229      0.2474518      -0.4606000
C3        0.3437195      0.6315613      0.4561691      -0.4606000
C3        0.3447800      0.6759720      0.2471466      -0.4606000
C3        0.3890686      0.6767654      0.4562531      -0.4606000
C3        0.4679642      0.6749268      0.2502975      -0.4606000
C3        0.3872147      0.5526657      0.4532700      -0.4606000
C3        0.2641144      0.6336212      0.2492905      -0.4606000
C3        0.3458633      0.7562866      0.4541016      -0.4606000
C3        0.4688644      0.6335220      0.4539108      -0.4606000
C3        0.3460236      0.5517197      0.2493515      -0.4606000
C3        0.2633133      0.6745148      0.4550018      -0.4606000
C3        0.3868713      0.7574310      0.2486038      -0.4606000
C3        0.2650070      0.7556381      0.3725128      -0.4606000
C3        0.4686737      0.7565765      0.3311691      -0.4606000
C3        0.4697189      0.5509720      0.3721161      -0.4606000
C3        0.2640686      0.5518265      0.3312531      -0.4606000
C3        0.5929794      0.2998505      0.3752670      -0.4606000
C3        0.5122299      0.4276657      0.3282700      -0.4606000
C3        0.6391296      0.5086670      0.3743057      -0.4606000
C3        0.7208328      0.3812561      0.3290634      -0.4606000
C3        0.5938797      0.5085068      0.3289108      -0.4606000
C3        0.7210388      0.4267044      0.3743668      -0.4606000
C3        0.6383286      0.2994995      0.3300018      -0.4606000
C3        0.5118713      0.3824158      0.3736191      -0.4606000
C3        0.6400223      0.3806076      0.2474518      -0.4606000
C3        0.5937347      0.3815613      0.4561691      -0.4606000
C3        0.5947800      0.4259567      0.2471466      -0.4606000
C3        0.6390839      0.4267654      0.4562531      -0.4606000
C3        0.7179947      0.4249115      0.2502975      -0.4606000
C3        0.6372299      0.3026505      0.4532700      -0.4606000
C3        0.5141296      0.3836060      0.2492905      -0.4606000
C3        0.5958786      0.5062561      0.4541016      -0.4606000
C3        0.7188950      0.3835068      0.4539108      -0.4606000
C3        0.5960236      0.3017044      0.2493515      -0.4606000
C3        0.5133286      0.4245148      0.4550018      -0.4606000
C3        0.6368713      0.5074158      0.2486038      -0.4606000
C3        0.5150223      0.5056076      0.3725128      -0.4606000
C3        0.7186890      0.5065613      0.3311691      -0.4606000
C3        0.7197495      0.3009567      0.3721161      -0.4606000
C3        0.5140839      0.3017960      0.3312531      -0.4606000
Xe        0.7176437      0.2868042      0.7140198      -0.3500000
Kr        0.7151413      0.3011017      0.7115784       0.3500000
Xe        0.6674347      0.6474228      0.5616226      -0.3500000
Kr        0.6788406      0.6549149      0.5670700       0.3500000
Xe        0.6343307      0.6540756      0.3243103      -0.3500000
Kr        0.6256790      0.6470718      0.3146591       0.3500000
Xe        0.2936554      0.3368454      0.7229843      -0.3500000
Kr        0.2855682      0.3490448      0.7244873       0.3500000
Xe        0.2983704      0.5739670      0.2732925      -0.3500000
Kr        0.2918015      0.5870209      0.2750015       0.3500000
Xe        0.6070786      0.4627151      0.6194229      -0.3500000
Kr        0.5925217      0.4650497      0.6188202       0.3500000
Xe        0.5498199      0.3242035      0.2682037      -0.3500000
Kr        0.5484238      0.3107529      0.2739563       0.3500000
Xe        0.6585922      0.3502960      0.5463181      -0.3500000
Kr        0.6728363      0.3535461      0.5482635       0.3500000
Xe        0.5478821      0.4002075      0.6432724      -0.3500000
Kr        0.5603714      0.3946609      0.6486206       0.3500000
Xe        0.2522659      0.4598999      0.4948654      -0.3500000
Kr        0.2427597      0.4670563      0.5036163       0.3500000
Xe        0.2650528      0.2845535      0.4083099      -0.3500000
Kr        0.2766647      0.2814026      0.4168015       0.3500000
Xe        0.3742676      0.6114197      0.4126129      -0.3500000
Kr        0.3639221      0.6016159      0.4088135       0.3500000
Xe        0.7271957      0.3358459      0.6871262      -0.3500000
Kr        0.7353897      0.3477936      0.6846848       0.3500000
Xe        0.4455719      0.4719543      0.6756744      -0.3500000
Kr        0.4433212      0.4864044      0.6769257       0.3500000
Xe        0.4741745      0.5136566      0.6610184      -0.3500000
Kr        0.4840622      0.5245590      0.6619644       0.3500000
Xe        0.3705673      0.4500580      0.4065628      -0.3500000
Kr        0.3627167      0.4385071      0.4111099       0.3500000
Xe        0.4122696      0.4488068      0.5466766      -0.3500000
Kr        0.4241791      0.4542694      0.5534744       0.3500000
Xe        0.7330933      0.4723663      0.7114792      -0.3500000
Kr        0.7193375      0.4691162      0.7155228       0.3500000
Xe        0.5779266      0.6380692      0.4149094      -0.3500000
Kr        0.5694199      0.6498642      0.4172592       0.3500000
Xe        0.6554718      0.4035645      0.6639328      -0.3500000
Kr        0.6556778      0.4171600      0.6583710       0.3500000
Xe        0.2462006      0.5307541      0.4197006      -0.3500000
Kr        0.2486572      0.5167618      0.4159622       0.3500000
Xe        0.2456589      0.3284454      0.5394669      -0.3500000
Kr        0.7382889      0.3357544      0.5290146       0.3500000
Xe        0.3913803      0.4705124      0.5819778      -0.3500000
Kr        0.3955231      0.4692154      0.5960236       0.3500000
Xe        0.3076096      0.6998215      0.3029404      -0.3500000
Kr        0.3216782      0.6956177      0.3045044       0.3500000
Xe        0.3695297      0.3929062      0.4088593      -0.3500000
Kr        0.3841248      0.3912125      0.4086685       0.3500000
Xe        0.5503235      0.4024582      0.3538132      -0.3500000
Kr        0.5544281      0.4157562      0.3491135       0.3500000
Xe        0.7085953      0.5432129      0.4585648      -0.3500000
Kr        0.7218933      0.5447617      0.4523544       0.3500000
Xe        0.4834137      0.5963211      0.7167740      -0.3500000
Kr        0.4807663      0.5878754      0.2285004       0.3500000
Xe        0.3083115      0.6423645      0.3429108      -0.3500000
Kr        0.3020630      0.6524124      0.3516617       0.3500000
Xe        0.3279724      0.5872116      0.5976715      -0.3500000
Kr        0.3157578      0.5881271      0.6058273       0.3500000
Xe        0.6996460      0.4801025      0.4204559      -0.3500000
Kr        0.7028427      0.4873581      0.4328613       0.3500000
Xe        0.6299744      0.6384201      0.6161270      -0.3500000
Kr        0.6303253      0.6271210      0.6255188       0.3500000
Xe        0.4919357      0.5933609      0.4857559      -0.3500000
Kr        0.4778290      0.5892715      0.4858627       0.3500000
Xe        0.5424347      0.5875244      0.4708633      -0.3500000
Kr        0.5402298      0.5925217      0.4845047       0.3500000
Xe        0.2856064      0.5679245      0.4227600      -0.3500000
Kr        0.2931137      0.5734253      0.4341660       0.3500000
Xe        0.6927872      0.7255325      0.4284592      -0.3500000
Kr        0.6877899      0.7353745      0.4381561       0.3500000
Xe        0.6604919      0.3443909      0.3574142      -0.3500000
Kr        0.6620941      0.3346939      0.3464508       0.3500000
Xe        0.5554276      0.6312256      0.3373184      -0.3500000
Kr        0.5486755      0.6262665      0.3494110       0.3500000
Xe        0.2660522      0.7684784      0.2520447      -0.3500000
Kr        0.2742081      0.7708359      0.2400513       0.3500000
Xe        0.6686401      0.6125183      0.5932159      -0.3500000
Kr        0.6663361      0.6013718      0.6025772       0.3500000
Xe        0.7341995      0.5248566      0.2416534      -0.3500000
Kr        0.7225876      0.5158615      0.2427444       0.3500000
Xe        0.2995148      0.6979675      0.3518066      -0.3500000
Kr        0.3101120      0.7068100      0.3467636       0.3500000
Xe        0.2461624      0.4765625      0.4186172      -0.3500000
Kr        0.2440567      0.4639664      0.4259109       0.3500000
Xe        0.5026321      0.4727020      0.7217331      -0.3500000
Kr        0.4981766      0.4631577      0.2320023       0.3500000
Xe        0.7302399      0.7587814      0.4262085      -0.3500000
Kr        0.7264862      0.7694855      0.4168625       0.3500000
Xe        0.5581818      0.4508057      0.6003265      -0.3500000
Kr        0.5518799      0.4388199      0.6060791       0.3500000
Xe        0.2857590      0.5361557      0.6627884      -0.3500000
Kr        0.2808151      0.5226135      0.6658325       0.3500000
Xe        0.6745453      0.5162125      0.4758072      -0.3500000
Kr        0.6716461      0.5240555      0.4637146       0.3500000
Xe        0.7392883      0.5898209      0.4349060      -0.3500000
Kr        0.7390366      0.5804138      0.4235611       0.3500000
Xe        0.6411285      0.6807251      0.6401291      -0.3500000
Kr        0.6498795      0.6732635      0.6309128       0.3500000
Xe        0.4889755      0.3483505      0.2276917      -0.3500000
Kr        0.4787674      0.3489532      0.2382431       0.3500000
Xe        0.6340790      0.6823730      0.5867157      -0.3500000
Kr        0.6368713      0.6687164      0.5820160       0.3500000
Xe        0.6215897      0.7160263      0.3298111      -0.3500000
Kr        0.6320801      0.7253799      0.3341675       0.3500000
Xe        0.3093109      0.2826920      0.2287979      -0.3500000
Kr        0.3122101      0.2871552      0.7151260       0.3500000
Xe        0.6795883      0.5213623      0.6955261      -0.3500000
Kr        0.6806335      0.5302505      0.6838760       0.3500000
Xe        0.4289169      0.3900528      0.6124649      -0.3500000
Kr        0.4309769      0.3913040      0.6269684       0.3500000
Xe        0.2998505      0.2834015      0.6762772      -0.3500000
Kr        0.2954559      0.2814026      0.6624222       0.3500000
Xe        0.3827667      0.4439087      0.3100967      -0.3500000
Kr        0.3863754      0.4346542      0.3208923       0.3500000
Xe        0.5428314      0.5625687      0.5124664      -0.3500000
Kr        0.5483398      0.5612717      0.5260773       0.3500000
Xe        0.2986145      0.5547638      0.5078125      -0.3500000
Kr        0.2914047      0.5668182      0.5034103       0.3500000
Xe        0.6777344      0.5309601      0.5200729      -0.3500000
Kr        0.6808853      0.5290146      0.5343170       0.3500000
Xe        0.3662720      0.7046661      0.3956146      -0.3500000
Kr        0.3659668      0.7006149      0.4097595       0.3500000
Xe        0.5047226      0.5857697      0.6725311      -0.3500000
Kr        0.4905853      0.5865631      0.6766357       0.3500000
Xe        0.4159622      0.3522034      0.5474701      -0.3500000
Kr        0.4023666      0.3576508      0.5464249       0.3500000
Xe        0.4706726      0.3066101      0.2433014      -0.3500000
Kr        0.4802704      0.2988968      0.2513962       0.3500000
Xe        0.4918365      0.3444977      0.5034714      -0.3500000
Kr        0.4817657      0.3408508      0.4933624       0.3500000
Xe        0.3452759      0.3823547      0.5805206      -0.3500000
Kr        0.3473663      0.3818130      0.5950699       0.3500000
Xe        0.5237808      0.7236328      0.4766006      -0.3500000
Kr        0.5374756      0.7193375      0.4734573       0.3500000
Xe        0.4305191      0.7707291      0.2532501      -0.3500000
Kr        0.4267654      0.2849045      0.2539444       0.3500000
Xe        0.6016312      0.4007034      0.2840042      -0.3500000
Kr        0.6045303      0.3863602      0.2855072       0.3500000
Xe        0.4441757      0.7225266      0.4349060      -0.3500000
Kr        0.4396286      0.7338257      0.4266663       0.3500000
Xe        0.2472076      0.7773819      0.2939987      -0.3500000
Kr        0.2570038      0.7665863      0.2960587       0.3500000
Xe        0.5224838      0.4785614      0.5015717      -0.3500000
Kr        0.5107269      0.4713058      0.4965744       0.3500000
Xe        0.3348770      0.4302063      0.6071243      -0.3500000
Kr        0.3321686      0.4289551      0.5927200       0.3500000
Xe        0.6054306      0.6758270      0.3684082      -0.3500000
Kr        0.6165237      0.6803284      0.3598557       0.3500000
Xe        0.6795502      0.3941574      0.4057541      -0.3500000
Kr        0.6728973      0.4018097      0.4164047       0.3500000
Xe        0.6895981      0.7172165      0.4782104      -0.3500000
Kr        0.6850967      0.7283249      0.4867554       0.3500000
Xe        0.5452347      0.3294449      0.6712799      -0.3500000
Kr        0.5390244      0.3198471      0.6805801       0.3500000
Xe        0.6851349      0.5769119      0.6778870      -0.3500000
Kr        0.6994858      0.5790176      0.6804733       0.3500000
Xe        0.4941254      0.5456161      0.4119034      -0.3500000
Kr        0.5067825      0.5523224      0.4152145       0.3500000
Xe        0.6419830      0.6493683      0.3757095      -0.3500000
Kr        0.6404343      0.6419220      0.3631134       0.3500000
Xe        0.5829773      0.5904236      0.6055145      -0.3500000
Kr        0.5706711      0.5912781      0.6135254       0.3500000
Xe        0.5448380      0.2819443      0.5327225      -0.3500000
Kr        0.5394363      0.2940979      0.5390701       0.3500000
Xe        0.5632858      0.4502640      0.3971634      -0.3500000
Kr        0.5707321      0.4595642      0.4057541       0.3500000
Xe        0.7001877      0.3296967      0.2786942      -0.3500000
Kr        0.6919327      0.3209991      0.2702026       0.3500000
Xe        0.2905121      0.5315018      0.2747040      -0.3500000
Kr        0.2974091      0.5319595      0.2876968       0.3500000
Xe        0.3662186      0.4530640      0.6611710      -0.3500000
Kr        0.3682175      0.4670563      0.6570663       0.3500000
Xe        0.5134354      0.2888031      0.2870941      -0.3500000
Kr        0.5042801      0.7782364      0.2916565       0.3500000
Xe        0.4353714      0.5801620      0.4838562      -0.3500000
Kr        0.4247208      0.5729675      0.4768066       0.3500000
Xe        0.6582413      0.3462067      0.5907135      -0.3500000
Kr        0.6712341      0.3495407      0.5968628       0.3500000
Xe        0.2931595      0.7415848      0.2742462      -0.3500000
Kr        0.2827530      0.7314301      0.2766495       0.3500000
Xe        0.6810303      0.4085083      0.3103027      -0.3500000
Kr        0.6798401      0.4031067      0.2966461       0.3500000
Xe        0.3071060      0.4652557      0.6026154      -0.3500000
Kr        0.2964096      0.4551620      0.6035156       0.3500000
Xe        0.3128128      0.3580017      0.3641129      -0.3500000
Kr        0.3169632      0.3463974      0.3560028       0.3500000
Xe        0.6604919      0.7179642      0.6450729      -0.3500000
Kr        0.6693344      0.7125626      0.6555176       0.3500000
Xe        0.3408203      0.4444656      0.2894974      -0.3500000
Kr        0.3415222      0.4573593      0.2965546       0.3500000
Xe        0.6381836      0.3803101      0.3676605      -0.3500000
Kr        0.6317215      0.3670959      0.3670120       0.3500000
Xe        0.4027252      0.3535004      0.4014130      -0.3500000
Kr        0.4164200      0.3589020      0.4019165       0.3500000
Xe        0.4404221      0.4787674      0.4775620      -0.3500000
Kr        0.4417191      0.4641571      0.4789581       0.3500000
Xe        0.2978058      0.3363419      0.2783585      -0.3500000
Kr        0.2885056      0.3264542      0.2727509       0.3500000
Xe        0.4322662      0.6845169      0.3411560      -0.3500000
Kr        0.4264297      0.6722183      0.3466568       0.3500000
Xe        0.5677719      0.4492035      0.6522675      -0.3500000
Kr        0.5764236      0.4373627      0.6535187       0.3500000
Xe        0.3569183      0.6247635      0.2862549      -0.3500000
Kr        0.3508682      0.6372147      0.2811966       0.3500000
Xe        0.6690369      0.6951141      0.5540771      -0.3500000
Kr        0.6595917      0.7050781      0.5593109       0.3500000
Xe        0.3768692      0.6803741      0.6434631      -0.3500000
Kr        0.3631287      0.6783218      0.6483688       0.3500000
Xe        0.3770752      0.5944672      0.5913773      -0.3500000
Kr        0.3735123      0.5906677      0.6051178       0.3500000
Xe        0.6153793      0.6868134      0.2942047      -0.3500000
Kr        0.6066818      0.6986160      0.2952499       0.3500000
Xe        0.5091782      0.7720261      0.4518127      -0.3500000
Kr        0.5178375      0.7601242      0.4513550       0.3500000
Xe        0.4141693      0.4142151      0.6532211      -0.3500000
Kr        0.4142151      0.4220123      0.6656876       0.3500000
Xe        0.2856064      0.5851212      0.7187347      -0.3500000
Kr        0.2991180      0.5865250      0.7243805       0.3500000
Xe        0.3518677      0.7185287      0.3546677      -0.3500000
Kr        0.3630219      0.7262802      0.3603592       0.3500000
Xe        0.4945831      0.7137146      0.5158157      -0.3500000
Kr        0.4923782      0.7132111      0.5303726       0.3500000
Xe        0.6996460      0.7290726      0.6719818      -0.3500000
Kr        0.7038422      0.7355804      0.6844788       0.3500000
Xe        0.4094162      0.4051666      0.2829437      -0.3500000
Kr        0.4224243      0.4016647      0.2889023       0.3500000
Xe        0.3898773      0.3698959      0.5822220      -0.3500000
Kr        0.3963623      0.3827133      0.5854187       0.3500000
Xe        0.4402161      0.3340073      0.7165222      -0.3500000
Kr        0.4383163      0.3213959      0.7238846       0.3500000
Xe        0.4297256      0.4628143      0.2890549      -0.3500000
Kr        0.4212799      0.4571075      0.2996445       0.3500000
Xe        0.5506744      0.4861069      0.6857300      -0.3500000
Kr        0.5451736      0.4764099      0.6761322       0.3500000
Xe        0.6964798      0.7179260      0.2693481      -0.3500000
Kr        0.6862869      0.7253265      0.2769547       0.3500000
Xe        0.6903915      0.4823608      0.5332260      -0.3500000
Kr        0.7002945      0.4769592      0.5238266       0.3500000
Xe        0.5203323      0.5078125      0.2733994      -0.3500000
Kr        0.5254822      0.4948044      0.2689514       0.3500000
Xe        0.4762650      0.7564316      0.2426453      -0.3500000
Kr        0.4653168      0.7505722      0.2505417       0.3500000
Xe        0.4229660      0.6488266      0.3045502      -0.3500000
Kr        0.4177780      0.6500168      0.2908478       0.3500000
Xe        0.7306976      0.5939255      0.2355042      -0.3500000
Kr        0.7378464      0.5901718      0.2477951       0.3500000
Xe        0.4647141      0.5797272      0.2674484      -0.3500000
Kr        0.4781189      0.5779724      0.2733536       0.3500000
Xe        0.5823898      0.6656265      0.5784149      -0.3500000
Kr        0.5889816      0.6779709      0.5739288       0.3500000
Xe        0.5707321      0.6054153      0.2973938      -0.3500000
Kr        0.5738220      0.6174698      0.3052521       0.3500000
Xe        0.7394943      0.5851212      0.5270767      -0.3500000
Kr        0.2464523      0.5912170      0.5156250       0.3500000
Xe        0.4398727      0.5711136      0.5289154      -0.3500000
Kr        0.4489670      0.5821686      0.5254745       0.3500000
Xe        0.2805023      0.4756012      0.4625626      -0.3500000
Kr        0.2905121      0.4703674      0.4720154       0.3500000
Xe        0.4818115      0.5401535      0.2961426      -0.3500000
Kr        0.4868317      0.5276642      0.2903061       0.3500000
Xe        0.3564148      0.4572525      0.5532227      -0.3500000
Kr        0.3695679      0.4595642      0.5470123       0.3500000
Xe        0.6232376      0.4634628      0.5522232      -0.3500000
Kr        0.6135254      0.4547119      0.5454254       0.3500000
Xe        0.6243210      0.5963669      0.5699234      -0.3500000
Kr        0.6145248      0.5912781      0.5602264       0.3500000
Xe        0.3496170      0.7164688      0.5631256      -0.3500000
Kr        0.3638153      0.7199860      0.5647736       0.3500000
Xe        0.2943039      0.3316956      0.4744568      -0.3500000
Kr        0.3005142      0.3359070      0.4871063       0.3500000
Xe        0.6442795      0.4101562      0.2837524      -0.3500000
Kr        0.6371841      0.4224091      0.2878036       0.3500000
Xe        0.5954819      0.6268234      0.5706711      -0.3500000
Kr        0.6001740      0.6280746      0.5845642       0.3500000
Xe        0.5394821      0.3391571      0.4692612      -0.3500000
Kr        0.5468369      0.3366547      0.4817505       0.3500000
Xe        0.6620331      0.4255142      0.6095657      -0.3500000
Kr        0.6661453      0.4310608      0.5965729       0.3500000
Xe        0.5675812      0.5940247      0.5427170      -0.3500000
Kr        0.5675278      0.6046219      0.5529099       0.3500000
Xe        0.4219284      0.4482651      0.3913651      -0.3500000
Kr        0.4083099      0.4534149      0.3936615       0.3500000
Xe        0.4130249      0.6094742      0.3487625      -0.3500000
Kr        0.4019699      0.5998688      0.3503113       0.3500000
Xe        0.6007385      0.4016647      0.6641846      -0.3500000
Kr        0.6127243      0.3933029      0.6625366       0.3500000
Xe        0.6817398      0.6495132      0.4035187      -0.3500000
Kr        0.6682434      0.6515732      0.4089203       0.3500000
Xe        0.5380402      0.4799118      0.4626541      -0.3500000
Kr        0.5488205      0.4831696      0.4720535       0.3500000
Xe        0.7414398      0.4842529      0.5387115      -0.3500000
Kr        0.7418365      0.4986572      0.5418167       0.3500000
Xe        0.6121826      0.3380508      0.6047211      -0.3500000
Kr        0.6242752      0.3389969      0.6130219       0.3500000
Xe        0.2762680      0.5931702      0.4768524      -0.3500000
Kr        0.2651596      0.5951767      0.4674683       0.3500000
Xe        0.6187744      0.6568146      0.6730881      -0.3500000
Kr        0.6084290      0.6671143      0.6711731       0.3500000
Xe        0.4469681      0.5783234      0.6668320      -0.3500000
Kr        0.4411240      0.5816193      0.6799316       0.3500000
Xe        0.3190689      0.6568680      0.6501160      -0.3500000
Kr        0.3061066      0.6506195      0.6532211       0.3500000
Xe        0.2497025      0.3245010      0.2863007      -0.3500000
Kr        0.7421875      0.3237915      0.2988968       0.3500000
Xe        0.4027634      0.3470993      0.3474579      -0.3500000
Kr        0.3979263      0.3443909      0.3610687       0.3500000
Xe        0.3295746      0.4375687      0.3885651      -0.3500000
Kr        0.3160553      0.4419632      0.3924637       0.3500000
Xe        0.6836395      0.5807648      0.2338028      -0.3500000
Kr        0.6891403      0.5927200      0.2271500       0.3500000
Xe        0.3024139      0.7235260      0.5360641      -0.3500000
Kr        0.3089142      0.7133179      0.5444260       0.3500000
Xe        0.3105621      0.6112747      0.6362686      -0.3500000
Kr        0.3163071      0.6052246      0.6483688       0.3500000
Xe        0.3395233      0.6738205      0.3634644      -0.3500000
Kr        0.3408203      0.6824188      0.3753510       0.3500000
Xe        0.3165131      0.7030716      0.4030151      -0.3500000
Kr        0.3056030      0.7110672      0.4088135       0.3500000
Xe        0.6201324      0.3511047      0.2930984      -0.3500000
Kr        0.6332245      0.3527985      0.2995453       0.3500000
Xe        0.3091049      0.4412155      0.5601273      -0.3500000
Kr        0.3106079      0.4547119      0.5544128       0.3500000
Xe        0.2899094      0.5822678      0.6716309      -0.3500000
Kr        0.2849045      0.5722198      0.6811829       0.3500000
Xe        0.5390244      0.3420563      0.7191696      -0.3500000
Kr        0.5371246      0.3463516      0.2330933       0.3500000
Xe        0.6770859      0.7634811      0.7028809      -0.3500000
Kr        0.6785431      0.7749863      0.6937790       0.3500000
Xe        0.4424667      0.7400208      0.2882462      -0.3500000
Kr        0.4344177      0.7334290      0.2779007       0.3500000
Xe        0.2842560      0.2952042      0.4577560      -0.3500000
Kr        0.2988663      0.2936020      0.4583588       0.3500000
Xe        0.2796631      0.4710541      0.7165833      -0.3500000
Kr        0.2817078      0.4707031      0.2311478       0.3500000
Xe        0.7257919      0.2985001      0.2551041      -0.3500000
Kr        0.7402420      0.2967453      0.2571945       0.3500000
Xe        0.6307831      0.6362305      0.4184113      -0.3500000
Kr        0.6185837      0.6298676      0.4131546       0.3500000
Xe        0.4446716      0.4752655      0.5238266      -0.3500000
Kr        0.4473190      0.4883575      0.5176697       0.3500000
Xe        0.4470139      0.3149948      0.6681290      -0.3500000
Kr        0.4540176      0.3202438      0.6799316       0.3500000
Xe        0.5198822      0.5540771      0.4642563      -0.3500000
Kr        0.5092850      0.5601273      0.4724579       0.3500000
Xe        0.3442764      0.6786652      0.5885696      -0.3500000
Kr        0.3414688      0.6676102      0.5792694       0.3500000
Xe        0.4259262      0.6046219      0.6064758      -0.3500000
Kr        0.4279099      0.6157150      0.5970154       0.3500000
Xe        0.4886246      0.5846252      0.5357742      -0.3500000
Kr        0.5013809      0.5788727      0.5311661       0.3500000
Xe        0.3886719      0.6770172      0.5931702      -0.3500000
Kr        0.3937149      0.6797256      0.5796204       0.3500000
Xe        0.3214722      0.4031601      0.6659393      -0.3500000
Kr        0.3085632      0.4060059      0.6594772       0.3500000
Xe        0.3145065      0.3898621      0.3986588      -0.3500000
Kr        0.3290176      0.3905106      0.4009552       0.3500000
Xe        0.4276657      0.6518707      0.6509705      -0.3500000
Kr        0.4389191      0.6579742      0.6437149       0.3500000
Xe        0.2909088      0.6637726      0.6150208      -0.3500000
Kr        0.2991180      0.6752243      0.6108704       0.3500000
Xe        0.6269836      0.4472656      0.6572266      -0.3500000
Kr        0.6192780      0.4597549      0.6582718       0.3500000
Xe        0.4577255      0.7638779      0.4575043      -0.3500000
Kr        0.4704208      0.7574768      0.4612579       0.3500000
Xe        0.2517090      0.4708099      0.2650986      -0.3500000
Kr        0.7422485      0.4636078      0.2737045       0.3500000
Xe        0.5571365      0.4556656      0.3489075      -0.3500000
Kr        0.5658340      0.4641113      0.3573151       0.3500000
Xe        0.4535751      0.3251495      0.5174637      -0.3500000
Kr        0.4472656      0.3267059      0.5306625       0.3500000
Xe        0.4209213      0.3610916      0.3027496      -0.3500000
Kr        0.4104767      0.3507538      0.3036957       0.3500000
Xe        0.6131287      0.3321533      0.3506622      -0.3500000
Kr        0.6019287      0.3329010      0.3411560       0.3500000
Xe        0.4081192      0.6032639      0.6555176      -0.3500000
Kr        0.4148788      0.6064148      0.6428223       0.3500000
Xe        0.5638733      0.3625107      0.6243668      -0.3500000
Kr        0.5639801      0.3477936      0.6248703       0.3500000
Xe        0.5594788      0.3592987      0.2992020      -0.3500000
Kr        0.5704803      0.3495407      0.3001480       0.3500000
Xe        0.5949860      0.4207611      0.6213226      -0.3500000
Kr        0.6095352      0.4223633      0.6201172       0.3500000
Xe        0.2846527      0.7205887      0.4821625      -0.3500000
Kr        0.2720108      0.7137756      0.4853134       0.3500000
Xe        0.2881546      0.7736740      0.5339203      -0.3500000
Kr        0.3002625      0.2818985      0.5323715       0.3500000
Xe        0.5461731      0.5368576      0.4219513      -0.3500000
Kr        0.5550308      0.5255585      0.4252625       0.3500000
Xe        0.6587372      0.7071228      0.3619614      -0.3500000
Kr        0.6675415      0.6992188      0.3532104       0.3500000
Xe        0.6052856      0.5936737      0.3940125      -0.3500000
Kr        0.6154327      0.5831223      0.3925552       0.3500000
Xe        0.4112244      0.7084198      0.5562210      -0.3500000
Kr        0.4215164      0.7099762      0.5458221       0.3500000
Xe        0.5542221      0.4885635      0.2362595      -0.3500000
Kr        0.5498199      0.4934692      0.7231293       0.3500000
Xe        0.3063583      0.3638000      0.6114197      -0.3500000
Kr        0.3030624      0.3619461      0.5971756       0.3500000
Xe        0.6634903      0.4475555      0.4146118      -0.3500000
Kr        0.6723938      0.4548111      0.4054184       0.3500000
Xe        0.2996597      0.4669037      0.4169693      -0.3500000
Kr        0.2909622      0.4775162      0.4223633       0.3500000
Xe        0.3589172      0.3403015      0.6092682      -0.3500000
Kr        0.3722153      0.3438492      0.6144638       0.3500000
Xe        0.6383743      0.4164047      0.3344650      -0.3500000
Kr        0.6293259      0.4076691      0.3421097       0.3500000
Xe        0.6669922      0.7089767      0.5983658      -0.3500000
Kr        0.6761932      0.7002182      0.6057663       0.3500000
Xe        0.5405807      0.7795334      0.6705246      -0.3500000
Kr        0.5364304      0.7723389      0.6583710       0.3500000
Xe        0.4765167      0.7522354      0.4149628      -0.3500000
Kr        0.4809189      0.7627869      0.4057083       0.3500000
Xe        0.4953766      0.3364487      0.6771317      -0.3500000
Kr        0.4987335      0.3473511      0.6863708       0.3500000
Xe        0.2445526      0.7255707      0.2892456      -0.3500000
Kr        0.7349930      0.7218399      0.2787552       0.3500000
Xe        0.6634369      0.7057648      0.3093033      -0.3500000
Kr        0.6550751      0.6936722      0.3092575       0.3500000
Xe        0.3119659      0.5419693      0.7129364      -0.3500000
Kr        0.3079605      0.5315018      0.7033844       0.3500000
Xe        0.5559769      0.7105637      0.6546631      -0.3500000
Kr        0.5679398      0.7020187      0.6545792       0.3500000
Xe        0.6947479      0.3286057      0.5306625      -0.3500000
Kr        0.6936417      0.3141556      0.5280151       0.3500000
Xe        0.6742935      0.6609802      0.2981033      -0.3500000
Kr        0.6798401      0.6558304      0.3107529       0.3500000
Xe        0.6744843      0.4530182      0.2961044      -0.3500000
Kr        0.6668930      0.4495621      0.3082581       0.3500000
Xe        0.4709702      0.3091507      0.4600677      -0.3500000
Kr        0.4845200      0.3036957      0.4582520       0.3500000
Xe        0.6039734      0.6276627      0.3637161      -0.3500000
Kr        0.5933380      0.6293716      0.3737640       0.3500000
Xe        0.6111221      0.7225876      0.6037674      -0.3500000
Kr        0.6242752      0.7211304      0.5973206       0.3500000
Xe        0.7093430      0.4938049      0.2729568      -0.3500000
Kr        0.6974869      0.4858170      0.2697449       0.3500000
Xe        0.4546204      0.4683609      0.2371521      -0.3500000
Kr        0.4465103      0.4741135      0.2262497       0.3500000
Xe        0.7218933      0.7601852      0.4971161      -0.3500000
Kr        0.7185822      0.7744827      0.4970093       0.3500000
Xe        0.6134338      0.5969696      0.3053970      -0.3500000
Kr        0.6106796      0.5945282      0.2911530       0.3500000
Xe        0.5901871      0.4351501      0.3292084      -0.3500000
Kr        0.5957794      0.4294128      0.3168488       0.3500000
Xe        0.4241791      0.2831497      0.4829636      -0.3500000
Kr        0.4255142      0.7757339      0.4703674       0.3500000
Xe        0.4727631      0.7702332      0.5049133      -0.3500000
Kr        0.4756165      0.2819443      0.4965744       0.3500000
Xe        0.3574142      0.4556046      0.3493118      -0.3500000
Kr        0.3551178      0.4569168      0.3638153       0.3500000
Xe        0.2992020      0.7553864      0.4392166      -0.3500000
Kr        0.2966156      0.7492371      0.4523087       0.3500000
Xe        0.3037109      0.7288818      0.7242813      -0.3500000
Kr        0.3064575      0.7375336      0.2358475       0.3500000
Xe        0.5218811      0.7102737      0.2360077      -0.3500000
Kr        0.5349350      0.7137756      0.2302551       0.3500000
Xe        0.5965881      0.4193649      0.3714523      -0.3500000
Kr        0.5983353      0.4337540      0.3736572       0.3500000
Xe        0.3852692      0.6796646      0.3310623      -0.3500000
Kr        0.3749237      0.6841202      0.3405533       0.3500000
Xe        0.4164658      0.3465576      0.6130219      -0.3500000
Kr        0.4233704      0.3463974      0.6000137       0.3500000
Xe        0.5274277      0.7363739      0.2792511      -0.3500000
Kr        0.5411835      0.7383347      0.2744980       0.3500000
Xe        0.4184189      0.6042252      0.5483246      -0.3500000
Kr        0.4064178      0.6017227      0.5564728       0.3500000
Xe        0.4638138      0.5256653      0.5400238      -0.3500000
Kr        0.4683609      0.5389023      0.5444260       0.3500000
Xe        0.3574753      0.5985718      0.6485138      -0.3500000
Kr        0.3685684      0.5977173      0.6580658       0.3500000
Xe        0.5770340      0.6966782      0.5408173      -0.3500000
Kr        0.5675812      0.7060776      0.5469666       0.3500000
Xe        0.4156723      0.4630661      0.3412170      -0.3500000
Kr        0.4109802      0.4722595      0.3516617       0.3500000
Xe        0.4333115      0.5414658      0.2648010      -0.3500000
Kr        0.4430695      0.5471191      0.2742462       0.3500000
Xe        0.5515289      0.3589020      0.3991165      -0.3500000
Kr        0.5631866      0.3499985      0.3975143       0.3500000
Xe        0.3029099      0.4088135      0.3476639      -0.3500000
Kr        0.3021011      0.3985138      0.3581696       0.3500000
Xe        0.7241440      0.2854004      0.5456161      -0.3500000
Kr        0.7381439      0.2898483      0.5446167       0.3500000
Xe        0.2574158      0.4880676      0.6648331      -0.3500000
Kr        0.2488632      0.4785614      0.6720886       0.3500000
Xe        0.7117844      0.5368195      0.2915955      -0.3500000
Kr        0.7007980      0.5270157      0.2921982       0.3500000
Xe        0.3765182      0.6779099      0.5376282      -0.3500000
Kr        0.3777695      0.6922150      0.5345230       0.3500000
Xe        0.2980576      0.4687195      0.2850952      -0.3500000
Kr        0.2886581      0.4777679      0.2783585       0.3500000
Xe        0.5521774      0.7718353      0.2555466      -0.3500000
Kr        0.5383301      0.7714844      0.2505417       0.3500000
Xe        0.4723663      0.5526657      0.5022202      -0.3500000
Kr        0.4593124      0.5480118      0.4971771       0.3500000
Xe        0.5556335      0.6223221      0.5878754      -0.3500000
Kr        0.5511780      0.6349792      0.5818710       0.3500000
Xe        0.5601273      0.6434631      0.5424194      -0.3500000
Kr        0.5721741      0.6517181      0.5407181       0.3500000
Xe        0.2870636      0.5390091      0.4562531      -0.3500000
Kr        0.2776642      0.5288544      0.4612579       0.3500000
Xe        0.2704544      0.5304184      0.5398788      -0.3500000
Kr        0.2845078      0.5344620      0.5381241       0.3500000
Xe        0.6686859      0.4383621      0.5481720      -0.3500000
Kr        0.6631393      0.4518509      0.5498199       0.3500000
Xe        0.4056625      0.6543274      0.4173660      -0.3500000
Kr        0.4199219      0.6565628      0.4142609       0.3500000
Xe        0.4853134      0.5076065      0.4987640      -0.3500000
Kr        0.4843140      0.5050049      0.4843140       0.3500000
Xe        0.4718628      0.5365677      0.4572525      -0.3500000
Kr        0.4704208      0.5441132      0.4447632       0.3500000
Xe        0.5162277      0.3028564      0.2276077      -0.3500000
Kr        0.5174332      0.3066940      0.7134323       0.3500000
Xe        0.4907761      0.4741592      0.2715530      -0.3500000
Kr        0.4781647      0.4685516      0.2766495       0.3500000
Xe        0.4993210      0.2894974      0.6520157      -0.3500000
Kr        0.4977798      0.3012085      0.6608124       0.3500000
Xe        0.2533569      0.2948914      0.5050735      -0.3500000
Kr        0.2660522      0.2902451      0.4992218       0.3500000
Xe        0.5396881      0.5832291      0.4227066      -0.3500000
Kr        0.5453339      0.5762177      0.4343567       0.3500000
Xe        0.4618759      0.7599335      0.6680222      -0.3500000
Kr        0.4621658      0.7703781      0.6576691       0.3500000
Xe        0.3122559      0.7128754      0.6065216      -0.3500000
Kr        0.3200684      0.7117691      0.5941162       0.3500000
Xe        0.4120636      0.7129669      0.3915558      -0.3500000
Kr        0.4063721      0.6998215      0.3881531       0.3500000
Xe        0.6830902      0.7742767      0.5200729      -0.3500000
Kr        0.6855392      0.7711716      0.5342712       0.3500000
Xe        0.3588715      0.4013062      0.2850494      -0.3500000
Kr        0.3655243      0.4144058      0.2846527       0.3500000
Xe        0.7392426      0.7095184      0.4626541      -0.3500000
Kr        0.7249832      0.7059174      0.4634628       0.3500000
Xe        0.6407318      0.3770447      0.6157150      -0.3500000
Kr        0.6407776      0.3842087      0.6028290       0.3500000
Xe        0.7008362      0.3335495      0.4265137      -0.3500000
Kr        0.7135925      0.3363037      0.4334183       0.3500000
Xe        0.3752670      0.3885651      0.5403748      -0.3500000
Kr        0.3630219      0.3815002      0.5446167       0.3500000
Xe        0.6815338      0.4776077      0.2335968      -0.3500000
Kr        0.6713943      0.4828568      0.7243805       0.3500000
Xe        0.4108734      0.5995712      0.2992020      -0.3500000
Kr        0.4235764      0.6056213      0.3035431       0.3500000
Xe        0.3265762      0.3522491      0.3158035      -0.3500000
Kr        0.3176727      0.3557510      0.3046036       0.3500000
Xe        0.2940140      0.5916748      0.5372696      -0.3500000
Kr        0.3053589      0.5940247      0.5463181       0.3500000
Xe        0.4331665      0.5763245      0.4291077      -0.3500000
Kr        0.4462738      0.5789719      0.4230576       0.3500000
Xe        0.5932770      0.3783569      0.3198929      -0.3500000
Kr        0.5838699      0.3858185      0.3284149       0.3500000
Xe        0.3465118      0.6065216      0.5495148      -0.3500000
Kr        0.3456116      0.6047211      0.5640640       0.3500000
Xe        0.3696136      0.3775482      0.3608170      -0.3500000
Kr        0.3557205      0.3796082      0.3564606       0.3500000
Xe        0.2523117      0.7286758      0.5286179      -0.3500000
Kr        0.2606506      0.7407761      0.5294724       0.3500000
Xe        0.6246338      0.3514557      0.6521225      -0.3500000
Kr        0.6185837      0.3387985      0.6565628       0.3500000
Xe        0.4556198      0.5026016      0.2882462      -0.3500000
Kr        0.4426117      0.5012054      0.2814484       0.3500000
Xe        0.5423813      0.5578690      0.6835785      -0.3500000
Kr        0.5300751      0.5555191      0.6912766       0.3500000
Xe        0.2559586      0.7494278      0.7090759      -0.3500000
Kr        0.2483673      0.7610779      0.7042236       0.3500000
Xe        0.3493652      0.6273727      0.3796616      -0.3500000
Kr        0.3411713      0.6336212      0.3691177       0.3500000
Xe        0.6250305      0.3860626      0.5374603      -0.3500000
Kr        0.6122284      0.3804169      0.5329132       0.3500000
Xe        0.6695404      0.5905228      0.5456772      -0.3500000
Kr        0.6688919      0.6040726      0.5513687       0.3500000
Xe        0.5553284      0.5154037      0.5181732      -0.3500000
Kr        0.5484848      0.5029144      0.5217590       0.3500000
Xe        0.6061783      0.7095184      0.6588745      -0.3500000
Kr        0.6180878      0.7150650      0.6522217       0.3500000
Xe        0.6068878      0.6731720      0.4190140      -0.3500000
Kr        0.6205826      0.6773682      0.4156113       0.3500000
Xe        0.4326248      0.3779984      0.3648605      -0.3500000
Kr        0.4249725      0.3817062      0.3528519       0.3500000
Xe        0.6115799      0.7202301      0.3774109      -0.3500000
Kr        0.6205292      0.7186737      0.3889618       0.3500000
Xe        0.6986465      0.7276764      0.5326233      -0.3500000
Kr        0.7115326      0.7289276      0.5256805       0.3500000
Xe        0.3720703      0.3842545      0.6267624      -0.3500000
Kr        0.3839722      0.3880081      0.6346207       0.3500000
Xe        0.5563278      0.5998230      0.6531219      -0.3500000
Kr        0.5543289      0.5927734      0.6658783       0.3500000
Xe        0.5669327      0.4528122      0.2949524      -0.3500000
Kr        0.5604324      0.4522095      0.3081512       0.3500000
Xe        0.5069733      0.7362823      0.6644363      -0.3500000
Kr        0.4936752      0.7313309      0.6604767       0.3500000
Xe        0.6674347      0.3628006      0.3153458      -0.3500000
Kr        0.6682892      0.3730392      0.3259125       0.3500000
Xe        0.6849442      0.3168030      0.6898346      -0.3500000
Kr        0.6884918      0.3211441      0.6762390       0.3500000
Xe        0.4658737      0.5153656      0.2448502      -0.3500000
Kr        0.4786606      0.5086060      0.2421570       0.3500000
Xe        0.2624054      0.7188797      0.2451477      -0.3500000
Kr        0.2660522      0.7170258      0.2310028       0.3500000
Xe        0.3123169      0.6232224      0.5810776      -0.3500000
Kr        0.3107529      0.6297684      0.5941162       0.3500000
Xe        0.4473648      0.7269897      0.5193176      -0.3500000
Kr        0.4566193      0.7337265      0.5100632       0.3500000
Xe        0.5050354      0.7239838      0.4305649      -0.3500000
Kr        0.4918747      0.7180710      0.4275131       0.3500000
Xe        0.3496780      0.3480453      0.4026031      -0.3500000
Kr        0.3613129      0.3431015      0.3951111       0.3500000
Xe        0.5757370      0.6639633      0.3150558      -0.3500000
Kr        0.5790329      0.6654663      0.3293076       0.3500000
Xe        0.5598297      0.3484955      0.3439102      -0.3500000
Kr        0.5511322      0.3569031      0.3523102       0.3500000
Xe        0.4342728      0.3357544      0.4771652      -0.3500000
Kr        0.4312668      0.3222504      0.4821091       0.3500000
Xe        0.5076828      0.5601654      0.2472458      -0.3500000
Kr        0.5158310      0.5479584      0.2461014       0.3500000
Xe        0.6340332      0.5875244      0.6193237      -0.3500000
Kr        0.6241302      0.5853729      0.6086197       0.3500000
Xe        0.6580353      0.5979233      0.4051666      -0.3500000
Kr        0.6558838      0.6034698      0.3917160       0.3500000
Xe        0.5379333      0.7736740      0.4153595      -0.3500000
Kr        0.5280304      0.2836533      0.4111557       0.3500000
Xe        0.5022812      0.5271606      0.7119751      -0.3500000
Kr        0.5073242      0.5153656      0.7048264       0.3500000
Xe        0.5412292      0.5872726      0.7158737      -0.3500000
Kr        0.5356827      0.5971146      0.7252808       0.3500000
Xe        0.3602676      0.7074127      0.3056946      -0.3500000
Kr        0.3672714      0.7179260      0.3132401       0.3500000
Xe        0.2442627      0.5940704      0.6895218      -0.3500000
Kr        0.2522659      0.5968246      0.7015762       0.3500000
Xe        0.5602264      0.2958527      0.4633179      -0.3500000
Kr        0.5588760      0.2889938      0.4503555       0.3500000
Xe        0.5158768      0.7629776      0.7158356      -0.3500000
Kr        0.5088730      0.7514267      0.7216721       0.3500000
Xe        0.6187286      0.6044159      0.6626816      -0.3500000
Kr        0.6073837      0.6135254      0.6650238       0.3500000
Xe        0.5100327      0.5400543      0.5336227      -0.3500000
Kr        0.5072861      0.5308151      0.5225143       0.3500000
Xe        0.5722809      0.7064133      0.3999557      -0.3500000
Kr        0.5824280      0.6962738      0.3968048       0.3500000
Xe        0.7210846      0.5345078      0.5465698      -0.3500000
Kr        0.7271347      0.5475540      0.5494690       0.3500000
Xe        0.4280777      0.4387589      0.5951767      -0.3500000
Kr        0.4347229      0.4256592      0.5945282       0.3500000
Xe        0.6810913      0.5254135      0.4221191      -0.3500000
Kr        0.6897430      0.5311050      0.4117126       0.3500000
Xe        0.6368713      0.4329147      0.3792648      -0.3500000
Kr        0.6440811      0.4216156      0.3852539       0.3500000
Xe        0.3322678      0.7013245      0.6465683      -0.3500000
Kr        0.3183212      0.6985168      0.6502686       0.3500000
Xe        0.5401840      0.7307205      0.5316620      -0.3500000
Kr        0.5341797      0.7348328      0.5188675       0.3500000
Xe        0.4759674      0.7086258      0.4663010      -0.3500000
Kr        0.4853134      0.7129669      0.4768066       0.3500000
Xe        0.5250320      0.5236206      0.6635818      -0.3500000
Kr        0.5395813      0.5249100      0.6619186       0.3500000
Xe        0.5561371      0.4682159      0.5447769      -0.3500000
Kr        0.5593262      0.4597549      0.5563736       0.3500000
Xe        0.6979370      0.5722656      0.4248123      -0.3500000
Kr        0.6868439      0.5796661      0.4309998       0.3500000
Xe        0.6270294      0.4610672      0.3050461      -0.3500000
Kr        0.6150208      0.4678650      0.3000031       0.3500000
Xe        0.2933044      0.3229980      0.5207748      -0.3500000
Kr        0.2865677      0.3309021      0.5311661       0.3500000
Xe        0.2926559      0.4196167      0.6220703      -0.3500000
Kr        0.3040619      0.4113617      0.6178207       0.3500000
Xe        0.7128906      0.5156097      0.6657333      -0.3500000
Kr        0.7259827      0.5185089      0.6717758       0.3500000
Xe        0.4441757      0.3330917      0.4220581      -0.3500000
Kr        0.4466171      0.3320007      0.4365082       0.3500000
Xe        0.6719818      0.6138763      0.3041916      -0.3500000
Kr        0.6618423      0.6100616      0.2942429       0.3500000
Xe        0.3577728      0.3350067      0.3472061      -0.3500000
Kr        0.3607254      0.3391571      0.3334198       0.3500000
Xe        0.6119766      0.4739075      0.3535614      -0.3500000
Kr        0.6229858      0.4641571      0.3526077       0.3500000
Xe        0.6550293      0.6975098      0.4049606      -0.3500000
Kr        0.6693344      0.7005157      0.4034119       0.3500000
Xe        0.6949387      0.4714127      0.4808578      -0.3500000
Kr        0.6813431      0.4769135      0.4817505       0.3500000
Xe        0.6713333      0.3489532      0.6485748      -0.3500000
Kr        0.6618423      0.3596497      0.6451111       0.3500000
Xe        0.2602081      0.2994537      0.6632843      -0.3500000
Kr        0.2486191      0.3037949      0.6712341       0.3500000
Xe        0.2943649      0.7298889      0.6671295      -0.3500000
Kr        0.2967606      0.7387695      0.6785736       0.3500000
Xe        0.2500610      0.3379898      0.2374496      -0.3500000
Kr        0.7387848      0.3431396      0.2453918       0.3500000
Xe        0.3339157      0.4062119      0.5415268      -0.3500000
Kr        0.3381271      0.4173050      0.5502625       0.3500000
Xe        0.3143616      0.3566971      0.5512619      -0.3500000
Kr        0.3200302      0.3701477      0.5492172       0.3500000
Xe        0.6657410      0.3913651      0.5667725      -0.3500000
Kr        0.6602402      0.3939056      0.5533676       0.3500000
Xe        0.3098602      0.6523285      0.3942184      -0.3500000
Kr        0.3131104      0.6589737      0.4069138       0.3500000
Xe        0.4229279      0.5016022      0.7141876      -0.3500000
Kr        0.4234238      0.5160065      0.7169342       0.3500000
Xe        0.5591202      0.6632690      0.3715591      -0.3500000
Kr        0.5537796      0.6765747      0.3683014       0.3500000
Xe        0.4822693      0.7212296      0.7083282      -0.3500000
Kr        0.4802246      0.7141266      0.7210846       0.3500000
Xe        0.3708649      0.7186737      0.6050797      -0.3500000
Kr        0.3667145      0.7064133      0.6119614       0.3500000
Xe        0.4355621      0.7754288      0.4267044      -0.3500000
Kr        0.4423218      0.2883453      0.4250565       0.3500000
Xe        0.4696732      0.5510178      0.6922302      -0.3500000
Kr        0.4676132      0.5505142      0.7067871       0.3500000
Xe        0.5890198      0.6809158      0.6239700      -0.3500000
Kr        0.6022339      0.6761780      0.6194687       0.3500000
Xe        0.4966278      0.3107529      0.5336227      -0.3500000
Kr        0.4909821      0.3238983      0.5369644       0.3500000
Xe        0.4859772      0.3078003      0.4159622      -0.3500000
Kr        0.4833145      0.3218079      0.4122162       0.3500000
Xe        0.3027039      0.6618195      0.5661240      -0.3500000
Kr        0.3002090      0.6517181      0.5557251       0.3500000
Xe        0.5438309      0.3362579      0.5276642      -0.3500000
Kr        0.5299759      0.3353424      0.5228195       0.3500000
Xe        0.5638733      0.2909470      0.7118759      -0.3500000
Kr        0.5597839      0.7771759      0.7089767       0.3500000
Xe        0.4062653      0.4644089      0.6449661      -0.3500000
Kr        0.4208221      0.4627609      0.6435242       0.3500000
Xe        0.4344177      0.7330780      0.4783554      -0.3500000
Kr        0.4349747      0.7196274      0.4724121       0.3500000
Xe        0.3218689      0.3437500      0.6551208      -0.3500000
Kr        0.3249283      0.3453064      0.6408157       0.3500000
Xe        0.3679199      0.5919647      0.3655090      -0.3500000
Kr        0.3565216      0.5924683      0.3562546       0.3500000
Xe        0.3184662      0.6038666      0.4114609      -0.3500000
Kr        0.3177185      0.6086197      0.3975601       0.3500000
Xe        0.6660385      0.6143799      0.6404190      -0.3500000
Kr        0.6624908      0.6051178      0.6512680       0.3500000
Xe        0.5751343      0.4039612      0.4124603      -0.3500000
Kr        0.5614777      0.4063568      0.4075012       0.3500000
Xe        0.4321213      0.5675278      0.7188339      -0.3500000
Kr        0.4221191      0.5717163      0.2286911       0.3500000
Xe        0.3961716      0.3971176      0.3270187      -0.3500000
Kr        0.3902740      0.3871078      0.3179550       0.3500000
Xe        0.3544769      0.6616211      0.4138641      -0.3500000
Kr        0.3644180      0.6514282      0.4174652       0.3500000
Xe        0.5638733      0.6603165      0.6619644      -0.3500000
Kr        0.5518799      0.6573105      0.6539154       0.3500000
Xe        0.4830170      0.4877548      0.4121094      -0.3500000
Kr        0.4816666      0.5024109      0.4116135       0.3500000
Xe        0.4293289      0.5306091      0.4686584      -0.3500000
Kr        0.4341202      0.5168076      0.4670563       0.3500000
Xe        0.7355347      0.5044174      0.4542084      -0.3500000
Kr        0.2457657      0.4983063      0.4628143       0.3500000
Xe        0.4304123      0.5258102      0.6716766      -0.3500000
Kr        0.4348755      0.5397568      0.6704254       0.3500000
Xe        0.5700302      0.3916550      0.5420685      -0.3500000
Kr        0.5588760      0.3987045      0.5486755       0.3500000
Xe        0.3994293      0.7235260      0.3449554      -0.3500000
Kr        0.4136276      0.7196732      0.3456573       0.3500000
Xe        0.5532837      0.7339783      0.4363632      -0.3500000
Kr        0.5510712      0.7307816      0.4221573       0.3500000
Xe        0.4915237      0.3379898      0.2786026      -0.3500000
Kr        0.5058823      0.3372574      0.2755432       0.3500000
Xe        0.3568726      0.4704056      0.6135635      -0.3500000
Kr        0.3506775      0.4686127      0.6003265       0.3500000
Xe        0.2524567      0.5116577      0.2920532      -0.3500000
Kr        0.2483063      0.5114059      0.2779465       0.3500000
Xe        0.7150421      0.7533264      0.2516479      -0.3500000
Kr        0.7266922      0.7502365      0.2432480       0.3500000
Xe        0.3493195      0.6292267      0.6083755      -0.3500000
Kr        0.3481750      0.6223679      0.6213684       0.3500000
Xe        0.6552811      0.3534470      0.4032059      -0.3500000
Kr        0.6682892      0.3555450      0.3967056       0.3500000
Xe        0.3125076      0.4492645      0.6493683      -0.3500000
Kr        0.3248672      0.4526596      0.6421127       0.3500000
Xe        0.4313278      0.4227600      0.3367157      -0.3500000
Kr        0.4341660      0.4296646      0.3493652       0.3500000
Xe        0.2983704      0.3991165      0.5738220      -0.3500000
Kr        0.2989578      0.4046021      0.5601654       0.3500000
Xe        0.6779404      0.6117096      0.3562546      -0.3500000
Kr        0.6854477      0.6096649      0.3437576       0.3500000
Xe        0.7136383      0.5560760      0.7133789      -0.3500000
Kr        0.7279434      0.5558701      0.7168808       0.3500000
Xe        0.7262344      0.2987061      0.4590607      -0.3500000
Kr        0.7399979      0.2939529      0.4567108       0.3500000
Xe        0.6064301      0.3484955      0.5557251      -0.3500000
Kr        0.6202774      0.3441010      0.5578156       0.3500000
Xe        0.3009567      0.3385544      0.4164658      -0.3500000
Kr        0.3104630      0.3479538      0.4103165       0.3500000
Xe        0.3676758      0.3384933      0.5508270      -0.3500000
Kr        0.3607712      0.3375931      0.5637741       0.3500000
Xe        0.6886826      0.4734116      0.6900787      -0.3500000
Kr        0.6885376      0.4752045      0.6754837       0.3500000
Xe        0.4299164      0.7775345      0.7082291      -0.3500000
Kr        0.4311218      0.7772827      0.6935883       0.3500000
Xe        0.4869766      0.4651566      0.4622574      -0.3500000
Kr        0.4847717      0.4737015      0.4504547       0.3500000
Xe        0.4103775      0.7069778      0.2963104      -0.3500000
Kr        0.4156723      0.6960297      0.3046036       0.3500000
Xe        0.5614319      0.3526917      0.5701141      -0.3500000
Kr        0.5681305      0.3542938      0.5571213       0.3500000
Xe        0.6822433      0.7654343      0.4675140      -0.3500000
Kr        0.6806335      0.7763824      0.4772034       0.3500000
Xe        0.3675232      0.5920258      0.3183899      -0.3500000
Kr        0.3740158      0.5891724      0.3054428       0.3500000
Xe        0.6640930      0.4648056      0.6430283      -0.3500000
Kr        0.6550751      0.4618149      0.6317673       0.3500000
Xe        0.5423355      0.4820023      0.4197617      -0.3500000
Kr        0.5284882      0.4774170      0.4216614       0.3500000
Xe        0.6077805      0.6349792      0.2807999      -0.3500000
Kr        0.5981293      0.6459274      0.2790451       0.3500000
Xe        0.6839905      0.2816544      0.4218063      -0.3500000
Kr        0.6869354      0.2920990      0.4317093       0.3500000
Xe        0.4371719      0.6477203      0.3756638      -0.3500000
Kr        0.4360657      0.6344147      0.3694687       0.3500000
Xe        0.5055313      0.5102539      0.4449081      -0.3500000
Kr        0.5157776      0.5178604      0.4522095       0.3500000
Xe        0.2595673      0.7604752      0.4685516      -0.3500000
Kr        0.2537689      0.7481308      0.4630051       0.3500000
Xe        0.3725739      0.3522949      0.2956009      -0.3500000
Kr        0.3644180      0.3580017      0.2847595       0.3500000
Xe        0.4855652      0.5855179      0.4378586      -0.3500000
Kr        0.4974213      0.5925217      0.4327545       0.3500000
Xe        0.5616226      0.4087143      0.3053589      -0.3500000
Kr        0.5622864      0.4021606      0.2921982       0.3500000
Xe        0.3707199      0.3512497      0.6596680      -0.3500000
Kr        0.3604202      0.3596954      0.6658783       0.3500000
Xe        0.4347687      0.7224274      0.6783829      -0.3500000
Kr        0.4482651      0.7249832      0.6836243       0.3500000
Xe        0.6012344      0.3580933      0.4052124      -0.3500000
Kr        0.6129761      0.3492966      0.4057541       0.3500000
Xe        0.5660248      0.7061691      0.2918015      -0.3500000
Kr        0.5623322      0.6986160      0.3039017       0.3500000
Xe        0.2884674      0.5183640      0.4128189      -0.3500000
Kr        0.2940140      0.5320053      0.4125671       0.3500000
Xe        0.4402771      0.4716187      0.4321671      -0.3500000
Kr        0.4443665      0.4747620      0.4184113       0.3500000
Xe        0.2779160      0.3340073      0.6837234      -0.3500000
Kr        0.2874069      0.3274536      0.6746292       0.3500000
Xe        0.5481339      0.4007645      0.5897141      -0.3500000
Kr        0.5483780      0.3900528      0.5998230       0.3500000
Xe        0.6731873      0.5705719      0.4746628      -0.3500000
Kr        0.6749420      0.5622101      0.4866562       0.3500000
Xe        0.3042068      0.5101547      0.4869614      -0.3500000
Kr        0.3167191      0.5152588      0.4929199       0.3500000
Xe        0.5145264      0.2992935      0.4957733      -0.3500000
Kr        0.5216751      0.2866516      0.4933624       0.3500000
Xe        0.7199402      0.5036087      0.4965134      -0.3500000
Kr        0.7122879      0.5157166      0.4929657       0.3500000
Xe        0.3753204      0.6400681      0.6676254      -0.3500000
Kr        0.3900223      0.6406250      0.6672745       0.3500000
Xe        0.2465134      0.5758209      0.2919922      -0.3500000
Kr        0.2464523      0.5611649      0.2909927       0.3500000
Xe        0.4285736      0.7034760      0.6402130      -0.3500000
Kr        0.4149628      0.6997681      0.6443634       0.3500000
Xe        0.3918152      0.6307678      0.6173172      -0.3500000
Kr        0.3897705      0.6450729      0.6200714       0.3500000
Xe        0.3748703      0.6345673      0.3341675      -0.3500000
Kr        0.3795166      0.6325607      0.3203506       0.3500000
Xe        0.6875992      0.5793228      0.2826920      -0.3500000
Kr        0.6996460      0.5732193      0.2767944       0.3500000
Xe        0.6918335      0.7772369      0.2901535      -0.3500000
Kr        0.7060318      0.2802505      0.2925568       0.3500000
Xe        0.3068161      0.7680283      0.4929199      -0.3500000
Kr        0.3025131      0.7544327      0.4965134       0.3500000
Xe        0.6008835      0.3864059      0.5872116      -0.3500000
Kr        0.5936737      0.3776932      0.5966187       0.3500000
Xe        0.7024841      0.3374481      0.2265472      -0.3500000
Kr        0.6881409      0.3350525      0.7243195       0.3500000
Xe        0.6750870      0.6525726      0.6589203      -0.3500000
Kr        0.6628494      0.6536636      0.6669388       0.3500000
Xe        0.5701294      0.7094727      0.3409653      -0.3500000
Kr        0.5792847      0.7163773      0.3502045       0.3500000
Xe        0.4862289      0.7492828      0.5411301      -0.3500000
Kr        0.4892731      0.7636261      0.5419693       0.3500000
Xe        0.3110046      0.6424255      0.2916565      -0.3500000
Kr        0.3014145      0.6527634      0.2958069       0.3500000
Xe        0.4260178      0.7052231      0.5977173      -0.3500000
Kr        0.4180222      0.7167740      0.6019745       0.3500000
Xe        0.5555344      0.7595825      0.4878159      -0.3500000
Kr        0.5621262      0.7642288      0.5001144       0.3500000
Xe        0.4186172      0.4081650      0.5580673      -0.3500000
Kr        0.4164200      0.4037094      0.5442200       0.3500000
Xe        0.6813431      0.6610184      0.6127167      -0.3500000
Kr        0.6803818      0.6467590      0.6162720       0.3500000
Xe        0.5862885      0.6276169      0.6328125      -0.3500000
Kr        0.5735321      0.6307678      0.6261749       0.3500000
Xe        0.6278229      0.4270630      0.5746155      -0.3500000
Kr        0.6240692      0.4144058      0.5681763       0.3500000
Xe        0.4375229      0.5150070      0.4219513      -0.3500000
Kr        0.4305801      0.5279541      0.4228058       0.3500000
Xe        0.5540314      0.5373154      0.2263947      -0.3500000
Kr        0.5593719      0.5506744      0.7232361       0.3500000
Xe        0.7289886      0.3425980      0.4847565      -0.3500000
Kr        0.7396393      0.3325043      0.4838104       0.3500000
Xe        0.5035324      0.4895554      0.5394669      -0.3500000
Kr        0.4895859      0.4921570      0.5434189       0.3500000
Xe        0.4957352      0.3405533      0.4468689      -0.3500000
Kr        0.5016327      0.3522949      0.4534607       0.3500000
Xe        0.3064117      0.3983078      0.3035431      -0.3500000
Kr        0.3149033      0.4096069      0.2996445       0.3500000
Xe        0.6823883      0.3899612      0.3582535      -0.3500000
Kr        0.6920853      0.3864594      0.3688049       0.3500000
Xe        0.5457306      0.3216019      0.4208679      -0.3500000
Kr        0.5412750      0.3308563      0.4313583       0.3500000
Xe        0.4239273      0.4013062      0.3997040      -0.3500000
Kr        0.4353714      0.4090042      0.3946991       0.3500000
Xe        0.2921143      0.4775620      0.5294724      -0.3500000
Kr        0.2847595      0.4826660      0.5177765       0.3500000
Xe        0.4189224      0.3655548      0.6537704      -0.3500000
Kr        0.4134216      0.3518982      0.6536636       0.3500000
Xe        0.3439636      0.6635208      0.3119507      -0.3500000
Kr        0.3413773      0.6569748      0.3248520       0.3500000
Xe        0.6114349      0.4607544      0.4084167      -0.3500000
Kr        0.6235733      0.4540176      0.4132614       0.3500000
Xe        0.6139374      0.6603775      0.5431137      -0.3500000
Kr        0.6222305      0.6482162      0.5433197       0.3500000
Xe        0.6834869      0.3874664      0.6172180      -0.3500000
Kr        0.6812363      0.3962021      0.6288681       0.3500000
Xe        0.6813889      0.5271606      0.2492905      -0.3500000
Kr        0.6800461      0.5376511      0.2390976       0.3500000
Xe        0.4236755      0.6629639      0.5469284      -0.3500000
Kr        0.4197769      0.6489258      0.5446701       0.3500000
Xe        0.5547256      0.5267639      0.4697647      -0.3500000
Kr        0.5501785      0.5340042      0.4817123       0.3500000
Xe        0.7136383      0.7185287      0.7206268      -0.3500000
Kr        0.7028427      0.7132721      0.2291489       0.3500000
Xe        0.5332260      0.5930710      0.2670517      -0.3500000
Kr        0.5399323      0.5818710      0.2737961       0.3500000
Xe        0.5593719      0.6097260      0.3844604      -0.3500000
Kr        0.5621872      0.6036224      0.3975143       0.3500000
Xe        0.6839905      0.6596222      0.3497620      -0.3500000
Kr        0.6857834      0.6529160      0.3627548       0.3500000
Xe        0.3099060      0.6004715      0.3066940      -0.3500000
Kr        0.3241196      0.6032639      0.3094482       0.3500000
Xe        0.2618637      0.5549164      0.2424927      -0.3500000
Kr        0.2724075      0.5446548      0.2418518       0.3500000
Xe        0.4633179      0.2824020      0.2832565      -0.3500000
Kr        0.4524155      0.7765732      0.2912445       0.3500000
Xe        0.2541046      0.3354034      0.4468689      -0.3500000
Kr        0.2678604      0.3316956      0.4431152       0.3500000
Xe        0.5534897      0.5445557      0.2669983      -0.3500000
Kr        0.5563278      0.5320663      0.2742081       0.3500000
Xe        0.6468811      0.4718094      0.5956726      -0.3500000
Kr        0.6352844      0.4699097      0.5868149       0.3500000
Xe        0.4395218      0.3222504      0.2733536      -0.3500000
Kr        0.4531174      0.3261032      0.2774582       0.3500000
Xe        0.3866272      0.4321671      0.6209259      -0.3500000
Kr        0.3735733      0.4319153      0.6277237       0.3500000
Xe        0.4380646      0.7267380      0.2316513      -0.3500000
Kr        0.4291611      0.7335815      0.7221756       0.3500000
Xe        0.5058823      0.4769592      0.6732788      -0.3500000
Kr        0.4932327      0.4761658      0.6658325       0.3500000
Xe        0.3471756      0.4105682      0.3294144      -0.3500000
Kr        0.3459244      0.4241180      0.3350677       0.3500000
Xe        0.3076630      0.4604645      0.3516617      -0.3500000
Kr        0.3012619      0.4488068      0.3453064       0.3500000
Xe        0.3845673      0.6609192      0.3786087      -0.3500000
Kr        0.3856201      0.6467590      0.3748093       0.3500000
Xe        0.6282349      0.5923615      0.3553543      -0.3500000
Kr        0.6234283      0.5976181      0.3424683       0.3500000
Xe        0.2511063      0.5399628      0.4953613      -0.3500000
Kr        0.2481613      0.5346527      0.5087662       0.3500000
Xe        0.5626221      0.7114182      0.5918198      -0.3500000
Kr        0.5674362      0.7157135      0.6050186       0.3500000
Xe        0.2961578      0.2879028      0.2804413      -0.3500000
Kr        0.3025589      0.7793274      0.2703094       0.3500000
Xe        0.4246140      0.6046219      0.3978043      -0.3500000
Kr        0.4100189      0.6062241      0.3990555       0.3500000
Xe        0.4343109      0.6550140      0.6025162      -0.3500000
Kr        0.4352264      0.6672134      0.5943680       0.3500000
Xe        0.3918152      0.4299622      0.3639069      -0.3500000
Kr        0.3881683      0.4158630      0.3660126       0.3500000
Xe        0.4757614      0.2906570      0.6994858      -0.3500000
Kr        0.4758682      0.7773819      0.7058258       0.3500000
Xe        0.4788284      0.7196274      0.2693939      -0.3500000
Kr        0.4928818      0.7152176      0.2702484       0.3500000
Xe        0.2663040      0.5181580      0.7058258      -0.3500000
Kr        0.2629013      0.5061035      0.7135849       0.3500000
Xe        0.3399658      0.6467209      0.5422745      -0.3500000
Kr        0.3497620      0.6427765      0.5320206       0.3500000
Xe        0.6795883      0.3123016      0.4703674      -0.3500000
Kr        0.6874313      0.3242950      0.4668045       0.3500000
Xe        0.5828857      0.4297104      0.5610657      -0.3500000
Kr        0.5819778      0.4225540      0.5739288       0.3500000
Xe        0.4382706      0.2877426      0.5384674      -0.3500000
Kr        0.4335175      0.7787247      0.5279160       0.3500000
Xe        0.7120361      0.2853012      0.6663742      -0.3500000
Kr        0.7101974      0.7714844      0.6619186       0.3500000
Xe        0.6286316      0.4041061      0.4202652      -0.3500000
Kr        0.6172333      0.3976135      0.4136124       0.3500000
Xe        0.3054123      0.4910507      0.6764297      -0.3500000
Kr        0.2960587      0.4801025      0.6735306       0.3500000
Xe        0.3863754      0.6683655      0.2791061      -0.3500000
Kr        0.3771210      0.6763229      0.2873001       0.3500000
Xe        0.3710709      0.4244080      0.5789108      -0.3500000
Kr        0.3852692      0.4279099      0.5772247       0.3500000
Xe        0.6247787      0.7149658      0.5440292      -0.3500000
Kr        0.6167755      0.7045212      0.5373764       0.3500000
Xe        0.3844757      0.6344147      0.5627136      -0.3500000
Kr        0.3789749      0.6343765      0.5763702       0.3500000
Xe        0.2710114      0.7259293      0.4264145      -0.3500000
Kr        0.2564163      0.7265778      0.4246063       0.3500000
Xe        0.3186722      0.5998230      0.3553085      -0.3500000
Kr        0.3059998      0.6007614      0.3478088       0.3500000
Xe        0.7123871      0.5545731      0.5068130      -0.3500000
Kr        0.7081375      0.5670242      0.5133743       0.3500000
Xe        0.5492783      0.6631699      0.6123734      -0.3500000
Kr        0.5489273      0.6774139      0.6087265       0.3500000
Xe        0.5483398      0.7372284      0.7024307      -0.3500000
Kr        0.5378723      0.7387695      0.6921310       0.3500000
Xe        0.6781311      0.4391556      0.3547058      -0.3500000
Kr        0.6774902      0.4271011      0.3463058       0.3500000
Xe        0.2620087      0.2965012      0.7149353      -0.3500000
Kr        0.2639084      0.3110046      0.7132874       0.3500000
Xe        0.7212906      0.5927200      0.4822540      -0.3500000
Kr        0.7137451      0.5902176      0.4699097       0.3500000
Xe        0.3658218      0.4045639      0.6680832      -0.3500000
Kr        0.3569717      0.4161148      0.6705246       0.3500000
Xe        0.6721878      0.2938919      0.2426453      -0.3500000
Kr        0.6819916      0.2834015      0.2457047       0.3500000
Xe        0.4259262      0.5227661      0.5152130      -0.3500000
Kr        0.4248657      0.5350037      0.5233231       0.3500000
Xe        0.2444687      0.7456284      0.6633301      -0.3500000
Kr        0.2477646      0.7314301      0.6612244       0.3500000
Xe        0.7401428      0.5551682      0.6709213      -0.3500000
Kr        0.7420425      0.5661697      0.6613159       0.3500000
Xe        0.5899353      0.3708496      0.3679047      -0.3500000
Kr        0.5843735      0.3832092      0.3737640       0.3500000
Xe        0.2963638      0.5093155      0.2428894      -0.3500000
Kr        0.3107529      0.5122147      0.2434540       0.3500000
Xe        0.5784302      0.5905228      0.3400497      -0.3500000
Kr        0.5794296      0.5858154      0.3539581       0.3500000
Xe        0.3037109      0.2288589      0.2242508      -0.3500000
Xe        0.2559586      0.2493973      0.2090530      -0.3500000
Kr        0.2483673      0.2610474      0.2041931       0.3500000
Xe        0.5158768      0.2629471      0.2158051      -0.3500000
Kr        0.5088730      0.2513962      0.2216415       0.3500000
Kr        0.5597839      0.2771454      0.2089462       0.3500000
Xe        0.4299164      0.2775040      0.2081985      -0.3500000
Kr        0.4311218      0.2772522      0.1935577       0.3500000
Kr        0.4291611      0.2335510      0.2221451       0.3500000
Kr        0.4758682      0.2773514      0.2057953       0.3500000
Xe        0.7559891      0.2493973      0.2090530      -0.3500000
Kr        0.7483978      0.2610474      0.2041931       0.3500000
Xe        0.2330627      0.4723663      0.2114487      -0.3500000
Kr        0.2193069      0.4691162      0.2154922       0.3500000
Xe        0.2136078      0.5560760      0.2133484      -0.3500000
Kr        0.2279129      0.5558701      0.2168503       0.3500000
H3        0.6099319      0.6322708      0.2061081       0.1381000
H3        0.5892715      0.6217651      0.1940536       0.1381000
H3        0.5879745      0.6464233      0.2029419       0.1381000
H3        0.6229248      0.6781158      0.2056503       0.1381000
H3        0.6451721      0.6853714      0.1939545       0.1381000
H3        0.6430283      0.6612701      0.2038956       0.1381000
H3        0.3599167      0.6322708      0.2061081       0.1381000
H3        0.3392715      0.6217651      0.1940536       0.1381000
H3        0.3379669      0.6464233      0.2029419       0.1381000
H3        0.3729248      0.6781158      0.2056503       0.1381000
H3        0.3951721      0.6853714      0.1939545       0.1381000
H3        0.3930283      0.6612701      0.2038956       0.1381000
H3        0.6099319      0.3822556      0.2061081       0.1381000
H3        0.5892715      0.3717499      0.1940536       0.1381000
H3        0.5879745      0.3964081      0.2029419       0.1381000
H3        0.6229248      0.4281082      0.2056503       0.1381000
H3        0.6451721      0.4353561      0.1939545       0.1381000
H3        0.6430283      0.4112549      0.2038956       0.1381000
H3        0.3599167      0.3822556      0.2061081       0.1381000
H3        0.3392715      0.3717499      0.1940536       0.1381000
H3        0.3379669      0.3964081      0.2029419       0.1381000
H3        0.3729248      0.4281082      0.2056503       0.1381000
H3        0.3951721      0.4353561      0.1939545       0.1381000
H3        0.3930283      0.4112549      0.2038956       0.1381000
C2        0.6630936      0.6215744      0.2001038      -0.0662000
C2        0.6486282      0.6073685      0.2000427      -0.0662000
C2        0.4130630      0.6215744      0.2001038      -0.0662000
C2        0.3183212      0.6884613      0.2022934      -0.0662000
C2        0.3986206      0.6073685      0.2000427      -0.0662000
C2        0.3327713      0.7026596      0.2022934      -0.0662000
C2        0.6630936      0.3715591      0.2001038      -0.0662000
C2        0.5683365      0.4384613      0.2022934      -0.0662000
C2        0.6486282      0.3573608      0.2000427      -0.0662000
C2        0.5827866      0.4526596      0.2022934      -0.0662000
C2        0.4130630      0.3715591      0.2001038      -0.0662000
C2        0.3183212      0.4384613      0.2022934      -0.0662000
C2        0.3986206      0.3573608      0.2000427      -0.0662000
C2        0.3327713      0.4526596      0.2022934      -0.0662000
H2        0.6740875      0.6252670      0.1890488       0.1141000
H2        0.6447754      0.5964279      0.1889954       0.1141000
H2        0.4240723      0.6252670      0.1890488       0.1141000
H2        0.3065033      0.6856232      0.1919098       0.1141000
H2        0.3947754      0.5964279      0.1889954       0.1141000
H2        0.3358154      0.7144623      0.1919098       0.1141000
H2        0.6740875      0.3752518      0.1890488       0.1141000
H2        0.5565338      0.4356079      0.1919098       0.1141000
H2        0.6447754      0.3463974      0.1889954       0.1141000
H2        0.5858307      0.4644623      0.1919098       0.1141000
H2        0.4240723      0.3752518      0.1890488       0.1141000
H2        0.3065033      0.4356079      0.1919098       0.1141000
H2        0.3947754      0.3463974      0.1889954       0.1141000
H2        0.3358154      0.4644623      0.1919098       0.1141000
N_c        0.6618423      0.6317673      0.2177048       0.0000000
N_c        0.6384354      0.6088104      0.2176437       0.0000000
N_c        0.4118195      0.6317673      0.2177048       0.0000000
N_c        0.3209229      0.6769104      0.2189560       0.0000000
N_c        0.3884201      0.6088104      0.2176437       0.0000000
N_c        0.3442764      0.6999283      0.2189560       0.0000000
N_c        0.6618423      0.3817520      0.2177048       0.0000000
N_c        0.5709229      0.4269104      0.2189560       0.0000000
N_c        0.6384354      0.3588028      0.2176437       0.0000000
N_c        0.5942764      0.4499130      0.2189560       0.0000000
N_c        0.4118195      0.3817520      0.2177048       0.0000000
N_c        0.3209229      0.4269104      0.2189560       0.0000000
N_c        0.3884201      0.3588028      0.2176437       0.0000000
N_c        0.3442764      0.4499130      0.2189560       0.0000000
C1        0.5862885      0.6241150      0.2253494       0.4375000
C1        0.6468353      0.6841202      0.2253494       0.4375000
C1        0.3362732      0.6241150      0.2253494       0.4375000
C1        0.3968201      0.6841202      0.2253494       0.4375000
C1        0.5862885      0.3740997      0.2253494       0.4375000
C1        0.6468353      0.4341049      0.2253494       0.4375000
C1        0.3362732      0.3740997      0.2253494       0.4375000
C1        0.3968201      0.4341049      0.2253494       0.4375000
C3        0.5937347      0.6315613      0.2061539      -0.4606000
C3        0.6390839      0.6767654      0.2062531      -0.4606000
C3        0.3437195      0.6315613      0.2061539      -0.4606000
C3        0.3890686      0.6767654      0.2062531      -0.4606000
C3        0.5937347      0.3815613      0.2061539      -0.4606000
C3        0.6390839      0.4267654      0.2062531      -0.4606000
C3        0.3437195      0.3815613      0.2061539      -0.4606000
C3        0.3890686      0.4267654      0.2062531      -0.4606000
Xe        0.7176437      0.2868042      0.2139969      -0.3500000
Kr        0.7151413      0.3011017      0.2115479       0.3500000
Xe        0.2936554      0.3368454      0.2229538      -0.3500000
Kr        0.2855682      0.3490448      0.2244568       0.3500000
Xe        0.7330933      0.4723663      0.2114487      -0.3500000
Kr        0.7193375      0.4691162      0.2154922       0.3500000
Xe        0.4834137      0.5963211      0.2167435      -0.3500000
Xe        0.5026321      0.4727020      0.2217026      -0.3500000
Kr        0.3122101      0.2871552      0.2150955       0.3500000
Xe        0.2856064      0.5851212      0.2187042      -0.3500000
Kr        0.2991180      0.5865250      0.2243500       0.3500000
Xe        0.4402161      0.3340073      0.2164917      -0.3500000
Kr        0.4383163      0.3213959      0.2238541       0.3500000
Xe        0.5390244      0.3420563      0.2191467      -0.3500000
Xe        0.2796631      0.4710541      0.2165527      -0.3500000
Kr        0.5498199      0.4934692      0.2230988       0.3500000
Xe        0.3119659      0.5419693      0.2129059      -0.3500000
Kr        0.3079605      0.5315018      0.2033539       0.3500000
Xe        0.3037109      0.7288818      0.2242508      -0.3500000
Kr        0.5174332      0.3066940      0.2134018       0.3500000
Kr        0.6713943      0.4828568      0.2243500       0.3500000
Xe        0.2559586      0.7494278      0.2090530      -0.3500000
Kr        0.2483673      0.7610779      0.2041931       0.3500000
Xe        0.5022812      0.5271606      0.2119446      -0.3500000
Kr        0.5073242      0.5153656      0.2047958       0.3500000
Xe        0.5412292      0.5872726      0.2158508      -0.3500000
Kr        0.5356827      0.5971146      0.2252502       0.3500000
Xe        0.5158768      0.7629776      0.2158051      -0.3500000
Kr        0.5088730      0.7514267      0.2216415       0.3500000
Xe        0.4229279      0.5016022      0.2141571      -0.3500000
Kr        0.4234238      0.5160065      0.2169037       0.3500000
Xe        0.4822693      0.7212296      0.2082977      -0.3500000
Kr        0.4802246      0.7141266      0.2210541       0.3500000
Xe        0.5638733      0.2909470      0.2118454      -0.3500000
Kr        0.5597839      0.7771759      0.2089462       0.3500000
Xe        0.4321213      0.5675278      0.2188034      -0.3500000
Xe        0.7136383      0.5560760      0.2133484      -0.3500000
Kr        0.7279434      0.5558701      0.2168503       0.3500000
Xe        0.4299164      0.7775345      0.2081985      -0.3500000
Kr        0.4311218      0.7772827      0.1935577       0.3500000
Kr        0.6881409      0.3350525      0.2242966       0.3500000
Kr        0.5593719      0.5506744      0.2232056       0.3500000
Xe        0.7136383      0.7185287      0.2206039      -0.3500000
Kr        0.4291611      0.7335815      0.2221451       0.3500000
Xe        0.4757614      0.2906570      0.1994553      -0.3500000
Kr        0.4758682      0.7773819      0.2057953       0.3500000
Xe        0.2663040      0.5181580      0.2057953      -0.3500000
Kr        0.2629013      0.5061035      0.2135544       0.3500000
Xe        0.2620087      0.2965012      0.2149048      -0.3500000
Kr        0.2639084      0.3110046      0.2132416       0.3500000
Xe        0.7936859      0.3368454      0.2229538      -0.3500000
Kr        0.7855911      0.3490448      0.2244568       0.3500000
Xe        0.7796936      0.4710541      0.2165527      -0.3500000
Xe        0.7559891      0.7494278      0.2090530      -0.3500000
Kr        0.7483978      0.7610779      0.2041931       0.3500000
Xe        0.7663345      0.5181580      0.2057953      -0.3500000
Kr        0.7629318      0.5061035      0.2135544       0.3500000
Xe        0.7620392      0.2965012      0.2149048      -0.3500000
Kr        0.7639313      0.3110046      0.2132416       0.3500000
Xe        0.7176437      0.7868271      0.2139969      -0.3500000
Kr        0.7151413      0.8011322      0.2115479       0.3500000
Kr        0.3122101      0.7871857      0.2150955       0.3500000
Xe        0.5638733      0.7909775      0.2118454      -0.3500000
Xe        0.4757614      0.7906876      0.1994553      -0.3500000
Xe        0.2620087      0.7965240      0.2149048      -0.3500000
Kr        0.2639084      0.8110352      0.2132416       0.3500000
Xe        0.7620392      0.7965240      0.2149048      -0.3500000
Kr        0.7639313      0.8110352      0.2132416       0.3500000
Xe        0.2302094      0.2587585      0.4262085      -0.3500000
Kr        0.2264557      0.2694550      0.4168625       0.3500000
Xe        0.2218628      0.2601547      0.4971161      -0.3500000
Kr        0.2185516      0.2744522      0.4970093       0.3500000
Xe        0.2150116      0.2532959      0.2516479      -0.3500000
Kr        0.2266617      0.2502060      0.2432480       0.3500000
Zn_c      0.6161270      0.2788544      0.6643295       0.3536000
Zn_c      0.5540314      0.2787552      0.6015167       0.3536000
Zn_c      0.6790466      0.2794418      0.6021652       0.3536000
Zn_c      0.3661270      0.2788544      0.6643295       0.3536000
Zn_c      0.3040161      0.2787552      0.6015167       0.3536000
Zn_c      0.4290161      0.2794418      0.6021652       0.3536000
Zn_c      0.6167755      0.2795486      0.5392761       0.3536000
Zn_c      0.3667755      0.2795486      0.5392761       0.3536000
Zn_c      0.6161270      0.2788544      0.4143143       0.3536000
Zn_c      0.5540314      0.2787552      0.3515167       0.3536000
Zn_c      0.6790466      0.2794418      0.3521652       0.3536000
Zn_c      0.3661270      0.2788544      0.4143143       0.3536000
Zn_c      0.3040161      0.2787552      0.3515167       0.3536000
Zn_c      0.4290161      0.2794418      0.3521652       0.3536000
H3        0.6235275      0.2564468      0.6280136       0.1381000
H3        0.6475296      0.2462463      0.6306229       0.1381000
H3        0.6407318      0.2579041      0.6082230       0.1381000
H3        0.5945282      0.2584457      0.5951157       0.1381000
H3        0.5840378      0.2464523      0.5744247       0.1381000
H3        0.6086807      0.2552948      0.5731735       0.1381000
H3        0.5957794      0.2724533      0.7048264       0.1381000
H3        0.5838318      0.2517929      0.6942291       0.1381000
H3        0.5926285      0.2505035      0.7189255       0.1381000
H3        0.7348862      0.2572556      0.5811234       0.1381000
H3        0.7142868      0.2467041      0.5690689       0.1381000
H3        0.7129364      0.2713470      0.5779724       0.1381000
H3        0.5000763      0.2502518      0.6258240       0.1381000
H3        0.5249863      0.2503510      0.6341705       0.1381000
H3        0.5149384      0.2718048      0.6231766       0.1381000
H3        0.6364746      0.2574005      0.4823608       0.1381000
H3        0.6495285      0.2483521      0.5030746       0.1381000
H3        0.6394806      0.2725449      0.5037231       0.1381000
H3        0.3735123      0.2564468      0.6280136       0.1381000
H3        0.3975143      0.2462463      0.6306229       0.1381000
H3        0.3907166      0.2579041      0.6082230       0.1381000
H3        0.3445282      0.2584457      0.5951157       0.1381000
H3        0.3340225      0.2464523      0.5744247       0.1381000
H3        0.3586655      0.2552948      0.5731735       0.1381000
H3        0.3457794      0.2724533      0.7048264       0.1381000
H3        0.3338165      0.2517929      0.6942291       0.1381000
H3        0.3426132      0.2505035      0.7189255       0.1381000
H3        0.4848709      0.2572556      0.5811234       0.1381000
H3        0.4642715      0.2467041      0.5690689       0.1381000
H3        0.4629211      0.2713470      0.5779724       0.1381000
H3        0.2500610      0.2502518      0.6258240       0.1381000
H3        0.2749557      0.2503510      0.6341705       0.1381000
H3        0.2649078      0.2718048      0.6231766       0.1381000
H3        0.3864746      0.2574005      0.4823608       0.1381000
H3        0.3995132      0.2483521      0.5030746       0.1381000
H3        0.3894653      0.2725449      0.5037231       0.1381000
H3        0.6235275      0.2564468      0.3780136       0.1381000
H3        0.6475296      0.2462463      0.3806076       0.1381000
H3        0.6407318      0.2579041      0.3582077       0.1381000
H3        0.5945282      0.2584457      0.3451157       0.1381000
H3        0.5840378      0.2464523      0.3244095       0.1381000
H3        0.6086807      0.2552948      0.3231583       0.1381000
H3        0.5957794      0.2724533      0.4548111       0.1381000
H3        0.5838318      0.2517929      0.4442139       0.1381000
H3        0.5926285      0.2505035      0.4689102       0.1381000
H3        0.7348862      0.2572556      0.3311081       0.1381000
H3        0.7142868      0.2467041      0.3190536       0.1381000
H3        0.7129364      0.2713470      0.3279572       0.1381000
H3        0.5000763      0.2502518      0.3758087       0.1381000
H3        0.5249863      0.2503510      0.3841705       0.1381000
H3        0.5149384      0.2718048      0.3731613       0.1381000
H3        0.3735123      0.2564468      0.3780136       0.1381000
H3        0.3975143      0.2462463      0.3806076       0.1381000
H3        0.3907166      0.2579041      0.3582077       0.1381000
H3        0.3445282      0.2584457      0.3451157       0.1381000
H3        0.3340225      0.2464523      0.3244095       0.1381000
H3        0.3586655      0.2552948      0.3231583       0.1381000
H3        0.3457794      0.2724533      0.4548111       0.1381000
H3        0.3338165      0.2517929      0.4442139       0.1381000
H3        0.3426132      0.2505035      0.4689102       0.1381000
H3        0.4848709      0.2572556      0.3311081       0.1381000
H3        0.4642715      0.2467041      0.3190536       0.1381000
H3        0.4629211      0.2713470      0.3279572       0.1381000
H3        0.2500610      0.2502518      0.3758087       0.1381000
H3        0.2749557      0.2503510      0.3841705       0.1381000
H3        0.2649078      0.2718048      0.3731613       0.1381000
H3        0.3864746      0.2574005      0.2323608       0.1381000
H3        0.3995132      0.2483521      0.2530441       0.1381000
H3        0.3894653      0.2725449      0.2536926       0.1381000
C2        0.5839310      0.2524567      0.6483231      -0.0662000
C2        0.6508255      0.2546921      0.5535736      -0.0662000
C2        0.6650391      0.2547531      0.5680237      -0.0662000
C2        0.5697327      0.2524567      0.6338730      -0.0662000
C2        0.6421890      0.2459946      0.6794281      -0.0662000
C2        0.5920868      0.2453918      0.5252686      -0.0662000
C2        0.5380783      0.2465591      0.5750732      -0.0662000
C2        0.7083435      0.2316971      0.6273727      -0.0662000
C2        0.5236282      0.2323608      0.5750732      -0.0662000
C2        0.6941452      0.2461014      0.6275177      -0.0662000
C2        0.5920868      0.2310028      0.5110626      -0.0662000
C2        0.6423340      0.2317963      0.6938324      -0.0662000
C2        0.3339157      0.2524567      0.6483231      -0.0662000
C2        0.4008255      0.2546921      0.5535736      -0.0662000
C2        0.4150238      0.2547531      0.5680237      -0.0662000
C2        0.3197174      0.2524567      0.6338730      -0.0662000
C2        0.3921738      0.2459946      0.6794281      -0.0662000
C2        0.3420715      0.2453918      0.5252686      -0.0662000
C2        0.2880630      0.2465591      0.5750732      -0.0662000
C2        0.4583130      0.2316971      0.6273727      -0.0662000
C2        0.2736206      0.2323608      0.5750732      -0.0662000
C2        0.4441147      0.2461014      0.6275177      -0.0662000
C2        0.3420715      0.2310028      0.5110626      -0.0662000
C2        0.3923187      0.2317963      0.6938324      -0.0662000
C2        0.5839310      0.2524567      0.3983078      -0.0662000
C2        0.6508255      0.2546921      0.3035431      -0.0662000
C2        0.6650391      0.2547531      0.3179932      -0.0662000
C2        0.5697327      0.2524567      0.3838577      -0.0662000
C2        0.6421890      0.2459946      0.4294128      -0.0662000
C2        0.5380783      0.2465591      0.3250580      -0.0662000
C2        0.7083435      0.2316971      0.3773575      -0.0662000
C2        0.5236282      0.2323608      0.3250580      -0.0662000
C2        0.6941452      0.2461014      0.3775177      -0.0662000
C2        0.6423340      0.2317963      0.4438019      -0.0662000
C2        0.3339157      0.2524567      0.3983078      -0.0662000
C2        0.4008255      0.2546921      0.3035431      -0.0662000
C2        0.4150238      0.2547531      0.3179932      -0.0662000
C2        0.3197174      0.2524567      0.3838577      -0.0662000
C2        0.3921738      0.2459946      0.4294128      -0.0662000
C2        0.3420715      0.2453918      0.2752533      -0.0662000
C2        0.2880630      0.2465591      0.3250580      -0.0662000
C2        0.4583130      0.2316971      0.3773575      -0.0662000
C2        0.2736206      0.2323608      0.3250580      -0.0662000
C2        0.4441147      0.2461014      0.3775177      -0.0662000
C2        0.3420715      0.2310028      0.2610474      -0.0662000
C2        0.3923187      0.2317963      0.4438019      -0.0662000
H2        0.5876236      0.2414093      0.6593170       0.1141000
H2        0.6479874      0.2443085      0.5417175       0.1141000
H2        0.6768799      0.2443466      0.5710297       0.1141000
H2        0.5587845      0.2414093      0.6299744       0.1141000
H2        0.6528854      0.2493973      0.6679840       0.1141000
H2        0.5816803      0.2484512      0.5370636       0.1141000
H2        0.5490723      0.2502518      0.5640640       0.1141000
H2        0.7117386      0.2202454      0.6380692       0.1141000
H2        0.5197754      0.2213974      0.5640259       0.1141000
H2        0.6828461      0.2495422      0.6383743       0.1141000
H2        0.5816345      0.2191467      0.5082245       0.1141000
H2        0.6531754      0.2205582      0.6972809       0.1141000
H2        0.3376236      0.2414093      0.6593170       0.1141000
H2        0.3979721      0.2443085      0.5417175       0.1141000
H2        0.4268723      0.2443466      0.5710297       0.1141000
H2        0.3087540      0.2414093      0.6299744       0.1141000
H2        0.4028702      0.2493973      0.6679840       0.1141000
H2        0.3316650      0.2484512      0.5370636       0.1141000
H2        0.2990570      0.2502518      0.5640640       0.1141000
H2        0.4617157      0.2202454      0.6380692       0.1141000
H2        0.2697601      0.2213974      0.5640259       0.1141000
H2        0.4328156      0.2495422      0.6383743       0.1141000
H2        0.3316193      0.2191467      0.5082245       0.1141000
H2        0.4031601      0.2205582      0.6972809       0.1141000
H2        0.5876236      0.2414093      0.4093170       0.1141000
H2        0.6479874      0.2443085      0.2917023       0.1141000
H2        0.6768799      0.2443466      0.3209991       0.1141000
H2        0.5587845      0.2414093      0.3799591       0.1141000
H2        0.6528854      0.2493973      0.4179688       0.1141000
H2        0.5490723      0.2502518      0.3140488       0.1141000
H2        0.7117386      0.2202454      0.3880692       0.1141000
H2        0.5197754      0.2213974      0.3139954       0.1141000
H2        0.6828461      0.2495422      0.3883591       0.1141000
H2        0.6531754      0.2205582      0.4472656       0.1141000
H2        0.3376236      0.2414093      0.4093170       0.1141000
H2        0.3979721      0.2443085      0.2917023       0.1141000
H2        0.4268723      0.2443466      0.3209991       0.1141000
H2        0.3087540      0.2414093      0.3799591       0.1141000
H2        0.4028702      0.2493973      0.4179688       0.1141000
H2        0.3316650      0.2484512      0.2870483       0.1141000
H2        0.2990570      0.2502518      0.3140488       0.1141000
H2        0.4617157      0.2202454      0.3880692       0.1141000
H2        0.2697601      0.2213974      0.3139954       0.1141000
H2        0.4328156      0.2495422      0.3883591       0.1141000
H2        0.3316193      0.2191467      0.2581940       0.1141000
H2        0.4031601      0.2205582      0.4472656       0.1141000
N_c        0.5941315      0.2700577      0.6470718       0.0000000
N_c        0.6392746      0.2713470      0.5561676       0.0000000
N_c        0.6623459      0.2713470      0.5795135       0.0000000
N_c        0.5711746      0.2700577      0.6236725       0.0000000
N_c        0.6249237      0.2566986      0.6813278       0.0000000
N_c        0.6087265      0.2569046      0.5225754       0.0000000
N_c        0.5367889      0.2567520      0.5926743       0.0000000
N_c        0.7190857      0.2336502      0.6101227       0.0000000
N_c        0.5134354      0.2338028      0.5926743       0.0000000
N_c        0.6960449      0.2570038      0.6103745       0.0000000
N_c        0.6086807      0.2335510      0.4995117       0.0000000
N_c        0.6251755      0.2336960      0.7046814       0.0000000
N_c        0.3441162      0.2700577      0.6470718       0.0000000
N_c        0.3892746      0.2713470      0.5561676       0.0000000
N_c        0.4123154      0.2713470      0.5795135       0.0000000
N_c        0.3211746      0.2700577      0.6236725       0.0000000
N_c        0.3749237      0.2566986      0.6813278       0.0000000
N_c        0.3587265      0.2569046      0.5225754       0.0000000
N_c        0.2867584      0.2567520      0.5926743       0.0000000
N_c        0.4690704      0.2336502      0.6101227       0.0000000
N_c        0.2634048      0.2338028      0.5926743       0.0000000
N_c        0.4460297      0.2570038      0.6103745       0.0000000
N_c        0.3586655      0.2335510      0.4995117       0.0000000
N_c        0.3751755      0.2336960      0.7046814       0.0000000
N_c        0.5941315      0.2700577      0.3970566       0.0000000
N_c        0.6392746      0.2713470      0.3061523       0.0000000
N_c        0.6623459      0.2713470      0.3295059       0.0000000
N_c        0.5711746      0.2700577      0.3736572       0.0000000
N_c        0.6249237      0.2566986      0.4313126       0.0000000
N_c        0.5367889      0.2567520      0.3426590       0.0000000
N_c        0.7190857      0.2336502      0.3601074       0.0000000
N_c        0.5134354      0.2338028      0.3426590       0.0000000
N_c        0.6960449      0.2570038      0.3603592       0.0000000
N_c        0.6251755      0.2336960      0.4546661       0.0000000
N_c        0.3441162      0.2700577      0.3970566       0.0000000
N_c        0.3892746      0.2713470      0.3061523       0.0000000
N_c        0.4123154      0.2713470      0.3295059       0.0000000
N_c        0.3211746      0.2700577      0.3736572       0.0000000
N_c        0.3749237      0.2566986      0.4313126       0.0000000
N_c        0.3587265      0.2569046      0.2725449       0.0000000
N_c        0.2867584      0.2567520      0.3426590       0.0000000
N_c        0.4690704      0.2336502      0.3601074       0.0000000
N_c        0.2634048      0.2338028      0.3426590       0.0000000
N_c        0.4460297      0.2570038      0.3603592       0.0000000
N_c        0.3586655      0.2335510      0.2494965       0.0000000
N_c        0.3751755      0.2336960      0.4546661       0.0000000
C1        0.6464844      0.2777481      0.6320648       0.4375000
C1        0.5864792      0.2777481      0.5715103       0.4375000
C1        0.6151276      0.2488937      0.6967316       0.4375000
C1        0.6182785      0.2493515      0.5068741       0.4375000
C1        0.5217361      0.2487488      0.6028290       0.4375000
C1        0.7112885      0.2490997      0.6003647       0.4375000
C1        0.3964691      0.2777481      0.6320648       0.4375000
C1        0.3364792      0.2777481      0.5715103       0.4375000
C1        0.3651276      0.2488937      0.6967316       0.4375000
C1        0.3682785      0.2493515      0.5068741       0.4375000
C1        0.2717056      0.2487488      0.6028290       0.4375000
C1        0.4612732      0.2490997      0.6003647       0.4375000
C1        0.6464844      0.2777481      0.3820648       0.4375000
C1        0.5864792      0.2777481      0.3214951       0.4375000
C1        0.6151276      0.2488937      0.4467010       0.4375000
C1        0.5217361      0.2487488      0.3528137       0.4375000
C1        0.7112885      0.2490997      0.3503494       0.4375000
C1        0.3964691      0.2777481      0.3820648       0.4375000
C1        0.3364792      0.2777481      0.3214951       0.4375000
C1        0.3651276      0.2488937      0.4467010       0.4375000
C1        0.3682785      0.2493515      0.2568588       0.4375000
C1        0.2717056      0.2487488      0.3528137       0.4375000
C1        0.4612732      0.2490997      0.3503494       0.4375000
C3        0.6391296      0.2586517      0.6243210      -0.4606000
C3        0.5938797      0.2585068      0.5789108      -0.4606000
C3        0.5958786      0.2562561      0.7041321      -0.4606000
C3        0.6368713      0.2574005      0.4986191      -0.4606000
C3        0.5150223      0.2556076      0.6225128      -0.4606000
C3        0.7186890      0.2565460      0.5811691      -0.4606000
C3        0.3891296      0.2586517      0.6243210      -0.4606000
C3        0.3438644      0.2585068      0.5789108      -0.4606000
C3        0.3458633      0.2562561      0.7041321      -0.4606000
C3        0.3868713      0.2574005      0.4986191      -0.4606000
C3        0.2650070      0.2556076      0.6225128      -0.4606000
C3        0.4686737      0.2565460      0.5811691      -0.4606000
C3        0.6391296      0.2586517      0.3743057      -0.4606000
C3        0.5938797      0.2585068      0.3289108      -0.4606000
C3        0.5958786      0.2562561      0.4541016      -0.4606000
C3        0.5150223      0.2556076      0.3725128      -0.4606000
C3        0.7186890      0.2565460      0.3311691      -0.4606000
C3        0.3891296      0.2586517      0.3743057      -0.4606000
C3        0.3438644      0.2585068      0.3289108      -0.4606000
C3        0.3458633      0.2562561      0.4541016      -0.4606000
C3        0.3868713      0.2574005      0.2486038      -0.4606000
C3        0.2650070      0.2556076      0.3725128      -0.4606000
C3        0.4686737      0.2565460      0.3311691      -0.4606000
Xe        0.6927872      0.2255020      0.4284592      -0.3500000
Kr        0.6877899      0.2353439      0.4381561       0.3500000
Xe        0.2660522      0.2684555      0.2520447      -0.3500000
Kr        0.2742081      0.2708054      0.2400513       0.3500000
Xe        0.7302399      0.2587585      0.4262085      -0.3500000
Kr        0.7264862      0.2694550      0.4168625       0.3500000
Xe        0.4305191      0.2707062      0.2532501      -0.3500000
Xe        0.2472076      0.2773514      0.2939987      -0.3500000
Kr        0.2570038      0.2665558      0.2960587       0.3500000
Kr        0.5042801      0.2781906      0.2916565       0.3500000
Xe        0.2931595      0.2415543      0.2742462      -0.3500000
Kr        0.2827530      0.2313995      0.2766495       0.3500000
Xe        0.5091782      0.2719955      0.4518127      -0.3500000
Kr        0.5178375      0.2600937      0.4513550       0.3500000
Xe        0.6996460      0.2290497      0.6719818      -0.3500000
Kr        0.7038422      0.2355499      0.6844788       0.3500000
Xe        0.4762650      0.2564011      0.2426453      -0.3500000
Kr        0.4653168      0.2505417      0.2505417       0.3500000
Xe        0.6770859      0.2634506      0.7028809      -0.3500000
Kr        0.6785431      0.2749557      0.6937790       0.3500000
Xe        0.4424667      0.2399979      0.2882462      -0.3500000
Kr        0.4344177      0.2333984      0.2779007       0.3500000
Xe        0.4577255      0.2638474      0.4575043      -0.3500000
Kr        0.4704208      0.2574463      0.4612579       0.3500000
Xe        0.2881546      0.2736435      0.5339203      -0.3500000
Xe        0.5405807      0.2795029      0.6705246      -0.3500000
Kr        0.5364304      0.2723083      0.6583710       0.3500000
Xe        0.4765167      0.2522049      0.4149628      -0.3500000
Kr        0.4809189      0.2627411      0.4057083       0.3500000
Xe        0.7218933      0.2601547      0.4971161      -0.3500000
Kr        0.7185822      0.2744522      0.4970093       0.3500000
Kr        0.4255142      0.2757034      0.4703674       0.3500000
Xe        0.4727631      0.2702026      0.5049133      -0.3500000
Xe        0.2992020      0.2553558      0.4392166      -0.3500000
Kr        0.2966156      0.2492065      0.4523087       0.3500000
Xe        0.3037109      0.2288589      0.7242813      -0.3500000
Kr        0.3064575      0.2375107      0.2358475       0.3500000
Xe        0.5274277      0.2363434      0.2792511      -0.3500000
Kr        0.5411835      0.2383041      0.2744980       0.3500000
Xe        0.5521774      0.2718048      0.2555466      -0.3500000
Kr        0.5383301      0.2714539      0.2505417       0.3500000
Xe        0.4618759      0.2599030      0.6680222      -0.3500000
Kr        0.4621658      0.2703476      0.6576691       0.3500000
Xe        0.6830902      0.2742462      0.5200729      -0.3500000
Kr        0.6855392      0.2711411      0.5342712       0.3500000
Xe        0.2523117      0.2286530      0.5286179      -0.3500000
Kr        0.2606506      0.2407455      0.5294724       0.3500000
Xe        0.2559586      0.2493973      0.7090759      -0.3500000
Kr        0.2483673      0.2610474      0.7042236       0.3500000
Xe        0.5069733      0.2362595      0.6644363      -0.3500000
Kr        0.4936752      0.2313004      0.6604767       0.3500000
Xe        0.4473648      0.2269592      0.5193176      -0.3500000
Kr        0.4566193      0.2336960      0.5100632       0.3500000
Xe        0.5379333      0.2736435      0.4153595      -0.3500000
Xe        0.5158768      0.2629471      0.7158356      -0.3500000
Kr        0.5088730      0.2513962      0.7216721       0.3500000
Xe        0.5401840      0.2306976      0.5316620      -0.3500000
Kr        0.5341797      0.2348022      0.5188675       0.3500000
Xe        0.2943649      0.2298584      0.6671295      -0.3500000
Kr        0.2967606      0.2387466      0.6785736       0.3500000
Xe        0.4355621      0.2753983      0.4267044      -0.3500000
Kr        0.5597839      0.2771454      0.7089767       0.3500000
Xe        0.5532837      0.2339478      0.4363632      -0.3500000
Kr        0.5510712      0.2307510      0.4221573       0.3500000
Xe        0.7150421      0.2532959      0.2516479      -0.3500000
Kr        0.7266922      0.2502060      0.2432480       0.3500000
Xe        0.4299164      0.2775040      0.7082291      -0.3500000
Kr        0.4311218      0.2772522      0.6935883       0.3500000
Xe        0.6822433      0.2654037      0.4675140      -0.3500000
Kr        0.6806335      0.2763519      0.4772034       0.3500000
Xe        0.2595673      0.2604446      0.4685516      -0.3500000
Kr        0.2537689      0.2481003      0.4630051       0.3500000
Xe        0.6918335      0.2772064      0.2901535      -0.3500000
Xe        0.3068161      0.2679977      0.4929199      -0.3500000
Kr        0.3025131      0.2544022      0.4965134       0.3500000
Xe        0.4862289      0.2492523      0.5411301      -0.3500000
Kr        0.4892731      0.2635956      0.5419693       0.3500000
Xe        0.5555344      0.2595520      0.4878159      -0.3500000
Kr        0.5621262      0.2641983      0.5001144       0.3500000
Kr        0.4524155      0.2765427      0.2912445       0.3500000
Xe        0.4380646      0.2267075      0.2316513      -0.3500000
Kr        0.4291611      0.2335510      0.7221756       0.3500000
Kr        0.3025589      0.2792969      0.2703094       0.3500000
Kr        0.4758682      0.2773514      0.7058258       0.3500000
Kr        0.4335175      0.2786942      0.5279160       0.3500000
Kr        0.7101974      0.2714539      0.6619186       0.3500000
Xe        0.5483398      0.2371979      0.7024307      -0.3500000
Kr        0.5378723      0.2387466      0.6921310       0.3500000
Xe        0.2444687      0.2455978      0.6633301      -0.3500000
Kr        0.2477646      0.2313995      0.6612244       0.3500000
H3        0.7500916      0.2502518      0.6258240       0.1381000
H3        0.7749863      0.2503510      0.6341705       0.1381000
H3        0.7649384      0.2718048      0.6231766       0.1381000
H3        0.7500916      0.2502518      0.3758087       0.1381000
H3        0.7749863      0.2503510      0.3841705       0.1381000
H3        0.7649384      0.2718048      0.3731613       0.1381000
C2        0.7880936      0.2465591      0.5750732      -0.0662000
C2        0.7736435      0.2323608      0.5750732      -0.0662000
C2        0.7880936      0.2465591      0.3250580      -0.0662000
C2        0.7736435      0.2323608      0.3250580      -0.0662000
H2        0.7990875      0.2502518      0.5640640       0.1141000
H2        0.7697906      0.2213974      0.5640259       0.1141000
H2        0.7990875      0.2502518      0.3140488       0.1141000
H2        0.7697906      0.2213974      0.3139954       0.1141000
N_c        0.7867889      0.2567520      0.5926743       0.0000000
N_c        0.7634354      0.2338028      0.5926743       0.0000000
N_c        0.7867889      0.2567520      0.3426590       0.0000000
N_c        0.7634354      0.2338028      0.3426590       0.0000000
C1        0.7717361      0.2487488      0.6028290       0.4375000
C1        0.7717361      0.2487488      0.3528137       0.4375000
C3        0.7650375      0.2556076      0.6225128      -0.4606000
C3        0.7650375      0.2556076      0.3725128      -0.4606000
Xe        0.7660828      0.2684555      0.2520447      -0.3500000
Kr        0.7742386      0.2708054      0.2400513       0.3500000
Xe        0.7472305      0.2773514      0.2939987      -0.3500000
Kr        0.7570343      0.2665558      0.2960587       0.3500000
Xe        0.7931900      0.2415543      0.2742462      -0.3500000
Kr        0.7827835      0.2313995      0.2766495       0.3500000
Xe        0.7523422      0.2286530      0.5286179      -0.3500000
Kr        0.7606812      0.2407455      0.5294724       0.3500000
Xe        0.7559891      0.2493973      0.7090759      -0.3500000
Kr        0.7483978      0.2610474      0.7042236       0.3500000
Xe        0.7595901      0.2604446      0.4685516      -0.3500000
Kr        0.7537994      0.2481003      0.4630051       0.3500000
Xe        0.7444992      0.2455978      0.6633301      -0.3500000
Kr        0.7477951      0.2313995      0.6612244       0.3500000
Zn_c      0.2411118      0.6538696      0.5393143       0.3536000
Zn_c      0.2417603      0.6545792      0.6642761       0.3536000
Zn_c      0.2412567      0.7167130      0.6013718       0.3536000
Zn_c      0.2419052      0.5916748      0.6020737       0.3536000
Zn_c      0.2411118      0.4038544      0.5393143       0.3536000
Zn_c      0.2417603      0.4045639      0.6642761       0.3536000
Zn_c      0.2412567      0.4667130      0.6013718       0.3536000
Zn_c      0.2419052      0.3416595      0.6020737       0.3536000
Zn_c      0.2411118      0.6538696      0.2892990       0.3536000
Zn_c      0.2417603      0.6545792      0.4142609       0.3536000
Zn_c      0.2412567      0.7167130      0.3513565       0.3536000
Zn_c      0.2419052      0.5916748      0.3520584       0.3536000
Zn_c      0.2411118      0.4038544      0.2892990       0.3536000
Zn_c      0.2417603      0.4045639      0.4142609       0.3536000
Zn_c      0.2412567      0.4667130      0.3513565       0.3536000
Zn_c      0.2419052      0.3416595      0.3520584       0.3536000
H3        0.2207642      0.6474228      0.5797653       0.1381000
H3        0.2088165      0.6268234      0.5691757       0.1381000
H3        0.2175522      0.6254730      0.5938644       0.1381000
H3        0.2186584      0.6806641      0.6088104       0.1381000
H3        0.2086639      0.6827698      0.6329193       0.1381000
H3        0.2204056      0.6605682      0.6257172       0.1381000
H3        0.2207642      0.3974075      0.5797653       0.1381000
H3        0.2088165      0.3767929      0.5691757       0.1381000
H3        0.2175522      0.3754578      0.5938644       0.1381000
H3        0.2186584      0.4306641      0.6088104       0.1381000
H3        0.2086639      0.4327545      0.6329193       0.1381000
H3        0.2204056      0.4105682      0.6257172       0.1381000
H3        0.2207642      0.6474228      0.3297501       0.1381000
H3        0.2088165      0.6268234      0.3191452       0.1381000
H3        0.2175522      0.6254730      0.3438644       0.1381000
H3        0.2186584      0.6806641      0.3588104       0.1381000
H3        0.2086639      0.6827698      0.3829193       0.1381000
H3        0.2204056      0.6605682      0.3757095       0.1381000
H3        0.2207642      0.3974075      0.3297501       0.1381000
H3        0.2088165      0.3767929      0.3191452       0.1381000
H3        0.2175522      0.3754578      0.3438644       0.1381000
H3        0.2186584      0.4306641      0.3588104       0.1381000
H3        0.2086639      0.4327545      0.3829193       0.1381000
H3        0.2204056      0.4105682      0.3757095       0.1381000
C2        0.2148056      0.6862717      0.5549698      -0.0662000
C2        0.2170563      0.6204224      0.6502686      -0.0662000
C2        0.2148056      0.7007217      0.5691757      -0.0662000
C2        0.2170563      0.6059723      0.6360626      -0.0662000
C2        0.2148056      0.4362564      0.5549698      -0.0662000
C2        0.2170563      0.3703918      0.6502686      -0.0662000
C2        0.2148056      0.4507065      0.5691757      -0.0662000
C2        0.2170563      0.3559418      0.6360626      -0.0662000
C2        0.2148056      0.6862717      0.3049469      -0.0662000
C2        0.2170563      0.6204224      0.4002686      -0.0662000
C2        0.2148056      0.7007217      0.3191452      -0.0662000
C2        0.2170563      0.6059723      0.3860626      -0.0662000
C2        0.2148056      0.4362564      0.3049469      -0.0662000
C2        0.2148056      0.4507065      0.3191452      -0.0662000
H2        0.2037659      0.6823730      0.5440292       0.1141000
H2        0.2066650      0.6234665      0.6620636       0.1141000
H2        0.2037659      0.7117157      0.5728226       0.1141000
H2        0.2066650      0.5941696      0.6332245       0.1141000
H2        0.2037659      0.4323578      0.5440292       0.1141000
H2        0.2066650      0.3734512      0.6620636       0.1141000
H2        0.2037659      0.4617157      0.5728226       0.1141000
H2        0.2066650      0.3441467      0.6332245       0.1141000
H2        0.2037659      0.6823730      0.2939987       0.1141000
H2        0.2066650      0.6234665      0.4120636       0.1141000
H2        0.2037659      0.7117157      0.3228073       0.1141000
H2        0.2066650      0.5941696      0.3832092       0.1141000
H2        0.2037659      0.4323578      0.2939987       0.1141000
H2        0.2037659      0.4617157      0.3228073       0.1141000
N_c        0.2324142      0.6760712      0.5564117       0.0000000
N_c        0.2336655      0.6319122      0.6475754       0.0000000
N_c        0.2324142      0.6994705      0.5793686       0.0000000
N_c        0.2336655      0.6085663      0.6245117       0.0000000
N_c        0.2324142      0.4260559      0.5564117       0.0000000
N_c        0.2336655      0.3819122      0.6475754       0.0000000
N_c        0.2324142      0.4494553      0.5793686       0.0000000
N_c        0.2336655      0.3585510      0.6245117       0.0000000
N_c        0.2324142      0.6760712      0.3064041       0.0000000
N_c        0.2336655      0.6319122      0.3975601       0.0000000
N_c        0.2324142      0.6994705      0.3293533       0.0000000
N_c        0.2336655      0.6085663      0.3745117       0.0000000
N_c        0.2324142      0.4260559      0.3064041       0.0000000
N_c        0.2324142      0.4494553      0.3293533       0.0000000
C1        0.2401123      0.6239243      0.5717163       0.4375000
C1        0.2401123      0.6844788      0.6317215       0.4375000
C1        0.2401123      0.3738937      0.5717163       0.4375000
C1        0.2401123      0.4344635      0.6317215       0.4375000
C1        0.2401123      0.6239243      0.3217010       0.4375000
C1        0.2401123      0.6844788      0.3817062       0.4375000
C1        0.2401123      0.3738937      0.3217010       0.4375000
C1        0.2401123      0.4344635      0.3817062       0.4375000
C3        0.2208099      0.6312714      0.5790787      -0.4606000
C3        0.2210159      0.6767197      0.6243668      -0.4606000
C3        0.2208099      0.3812561      0.5790787      -0.4606000
C3        0.2210159      0.4267044      0.6243668      -0.4606000
C3        0.2208099      0.6312714      0.3290634      -0.4606000
C3        0.2210159      0.6767197      0.3743668      -0.4606000
C3        0.2208099      0.3812561      0.3290634      -0.4606000
C3        0.2210159      0.4267044      0.3743668      -0.4606000
Xe        0.2271652      0.3358459      0.6871262      -0.3500000
Kr        0.2353592      0.3477936      0.6846848       0.3500000
Xe        0.2330627      0.4723663      0.7114792      -0.3500000
Kr        0.2193069      0.4691162      0.7155228       0.3500000
Kr        0.2382584      0.3357544      0.5290146       0.3500000
Xe        0.2341690      0.5248566      0.2416534      -0.3500000
Kr        0.2225571      0.5158615      0.2427444       0.3500000
Xe        0.2302094      0.7587814      0.4262085      -0.3500000
Kr        0.2264557      0.7694855      0.4168625       0.3500000
Xe        0.2392578      0.5898209      0.4349060      -0.3500000
Kr        0.2390060      0.5804138      0.4235611       0.3500000
Xe        0.2306671      0.5939255      0.2355042      -0.3500000
Kr        0.2378159      0.5901718      0.2477951       0.3500000
Xe        0.2394638      0.5851212      0.5270767      -0.3500000
Xe        0.2414093      0.4842529      0.5387115      -0.3500000
Kr        0.2418060      0.4986572      0.5418167       0.3500000
Kr        0.2421570      0.3237915      0.2988968       0.3500000
Xe        0.2257614      0.2985001      0.2551041      -0.3500000
Kr        0.2402115      0.2967453      0.2571945       0.3500000
Kr        0.2422180      0.4636078      0.2737045       0.3500000
Kr        0.2349625      0.7218399      0.2787552       0.3500000
Xe        0.2218628      0.7601852      0.4971161      -0.3500000
Kr        0.2185516      0.7744827      0.4970093       0.3500000
Xe        0.2241135      0.2854004      0.5456161      -0.3500000
Kr        0.2381134      0.2898483      0.5446167       0.3500000
Xe        0.2392120      0.7095184      0.4626541      -0.3500000
Kr        0.2249527      0.7059174      0.4634628       0.3500000
Xe        0.2210541      0.5345078      0.5465698      -0.3500000
Kr        0.2271042      0.5475540      0.5494690       0.3500000
Xe        0.2128601      0.5156097      0.6657333      -0.3500000
Kr        0.2259598      0.5185089      0.6717758       0.3500000
Kr        0.2387543      0.3431396      0.2453918       0.3500000
Xe        0.2355042      0.5044174      0.4542084      -0.3500000
Xe        0.2150116      0.7533264      0.2516479      -0.3500000
Kr        0.2266617      0.7502365      0.2432480       0.3500000
Xe        0.2136078      0.5560760      0.7133789      -0.3500000
Kr        0.2279129      0.5558701      0.7168808       0.3500000
Xe        0.2262039      0.2987061      0.4590607      -0.3500000
Kr        0.2399673      0.2939529      0.4567108       0.3500000
Xe        0.2289581      0.3425980      0.4847565      -0.3500000
Kr        0.2396088      0.3325043      0.4838104       0.3500000
Xe        0.2212601      0.5927200      0.4822540      -0.3500000
Kr        0.2137146      0.5902176      0.4699097       0.3500000
Xe        0.2401123      0.5551682      0.6709213      -0.3500000
Kr        0.2420120      0.5661697      0.6613159       0.3500000
H3        0.7645416      0.3975601      0.3787079       0.1381000
H3        0.7745895      0.3732910      0.3780594       0.1381000
H3        0.7614365      0.3824158      0.3574142       0.1381000
H3        0.7629318      0.4276047      0.3444672       0.1381000
H3        0.7738953      0.4375687      0.3229141       0.1381000
H3        0.7655411      0.4127121      0.3229141       0.1381000
H3        0.7484818      0.3815613      0.2528992       0.1381000
H3        0.7723923      0.3712463      0.2557983       0.1381000
H3        0.7658920      0.3828125      0.2332535       0.1381000
H3        0.7479401      0.3031082      0.3306656       0.1381000
H3        0.7701416      0.3104019      0.3188934       0.1381000
H3        0.7680817      0.2862549      0.3289108       0.1381000
H3        0.7500916      0.5002670      0.3758087       0.1381000
H3        0.7749863      0.5003510      0.3841705       0.1381000
H3        0.7649384      0.5218048      0.3731613       0.1381000
H3        0.7645416      0.6475754      0.6287231       0.1381000
H3        0.7745895      0.6233215      0.6280746       0.1381000
H3        0.7614365      0.6324158      0.6074142       0.1381000
H3        0.7629318      0.6776199      0.5944672       0.1381000
H3        0.7738953      0.6875687      0.5729218       0.1381000
H3        0.7655411      0.6627121      0.5729218       0.1381000
H3        0.7484818      0.6315613      0.5029144       0.1381000
H3        0.7723923      0.6212769      0.5058289       0.1381000
H3        0.7658920      0.6328125      0.4832535       0.1381000
H3        0.7479401      0.5531158      0.5806656       0.1381000
H3        0.7701416      0.5604172      0.5689240       0.1381000
H3        0.7680817      0.5362549      0.5789108       0.1381000
H3        0.7500916      0.7502823      0.6258240       0.1381000
H3        0.7749863      0.7503815      0.6341705       0.1381000
H3        0.7649384      0.7718353      0.6231766       0.1381000
H3        0.7683334      0.6770782      0.7202301       0.1381000
H3        0.7678375      0.6872101      0.6960297       0.1381000
H3        0.7471466      0.6741180      0.7050323       0.1381000
H3        0.7645416      0.3975601      0.6287231       0.1381000
H3        0.7745895      0.3732910      0.6280746       0.1381000
H3        0.7614365      0.3824158      0.6074142       0.1381000
H3        0.7629318      0.4276047      0.5944672       0.1381000
H3        0.7738953      0.4375687      0.5729218       0.1381000
H3        0.7655411      0.4127121      0.5729218       0.1381000
H3        0.7484818      0.3815613      0.5029144       0.1381000
H3        0.7723923      0.3712463      0.5058289       0.1381000
H3        0.7658920      0.3828125      0.4832535       0.1381000
H3        0.7479401      0.3031082      0.5806656       0.1381000
H3        0.7701416      0.3104019      0.5689240       0.1381000
H3        0.7680817      0.2862549      0.5789108       0.1381000
H3        0.7500916      0.5002670      0.6258240       0.1381000
H3        0.7749863      0.5003510      0.6341705       0.1381000
H3        0.7649384      0.5218048      0.6231766       0.1381000
H3        0.7683334      0.4270630      0.7202301       0.1381000
H3        0.7678375      0.4372101      0.6960297       0.1381000
H3        0.7471466      0.4241180      0.7050323       0.1381000
H3        0.7645416      0.6475754      0.3787079       0.1381000
H3        0.7745895      0.6233215      0.3780594       0.1381000
H3        0.7614365      0.6324158      0.3574142       0.1381000
H3        0.7629318      0.6776199      0.3444672       0.1381000
H3        0.7738953      0.6875687      0.3229141       0.1381000
H3        0.7655411      0.6627121      0.3229141       0.1381000
H3        0.7484818      0.6315613      0.2528992       0.1381000
H3        0.7723923      0.6212769      0.2557983       0.1381000
H3        0.7658920      0.6328125      0.2332535       0.1381000
H3        0.7479401      0.5531158      0.3306656       0.1381000
H3        0.7701416      0.5604172      0.3188934       0.1381000
H3        0.7680817      0.5362549      0.3289108       0.1381000
H3        0.7500916      0.7502823      0.3758087       0.1381000
H3        0.7749863      0.7503815      0.3841705       0.1381000
H3        0.7649384      0.7718353      0.3731613       0.1381000
H3        0.7683334      0.6770782      0.4701996       0.1381000
H3        0.7678375      0.6872101      0.4460144       0.1381000
H3        0.7471466      0.6741180      0.4550018       0.1381000
C2        0.7672424      0.3710556      0.3043976      -0.0662000
C2        0.7671432      0.4379044      0.3990555      -0.0662000
C2        0.7669983      0.4521027      0.3846054      -0.0662000
C2        0.7673340      0.3567963      0.3188019      -0.0662000
C2        0.7743988      0.4296036      0.2747040      -0.0662000
C2        0.7880936      0.4965591      0.3250580      -0.0662000
C2        0.7752380      0.3264008      0.3774109      -0.0662000
C2        0.7894363      0.3119507      0.3772659      -0.0662000
C2        0.7736435      0.4823608      0.3250580      -0.0662000
C2        0.7887878      0.4298096      0.2604446      -0.0662000
C2        0.7672424      0.6210709      0.5544128      -0.0662000
C2        0.7671432      0.6879196      0.6490707      -0.0662000
C2        0.7669983      0.7021179      0.6346207      -0.0662000
C2        0.7673340      0.6068115      0.5688171      -0.0662000
C2        0.7743988      0.6796188      0.5247192      -0.0662000
C2        0.7758408      0.6297226      0.6785736      -0.0662000
C2        0.7880936      0.7465897      0.5750732      -0.0662000
C2        0.7752380      0.5764236      0.6274109      -0.0662000
C2        0.7894363      0.5619659      0.6272659      -0.0662000
C2        0.7736435      0.7323837      0.5750732      -0.0662000
C2        0.7901001      0.6297226      0.6929779      -0.0662000
C2        0.7887878      0.6798248      0.5104752      -0.0662000
C2        0.7672424      0.3710556      0.5544128      -0.0662000
C2        0.7671432      0.4379044      0.6490707      -0.0662000
C2        0.7669983      0.4521027      0.6346207      -0.0662000
C2        0.7673340      0.3567963      0.5688171      -0.0662000
C2        0.7743988      0.4296036      0.5247192      -0.0662000
C2        0.7758408      0.3797073      0.6785736      -0.0662000
C2        0.7880936      0.4965591      0.5750732      -0.0662000
C2        0.7752380      0.3264008      0.6274109      -0.0662000
C2        0.7894363      0.3119507      0.6272659      -0.0662000
C2        0.7736435      0.4823608      0.5750732      -0.0662000
C2        0.7901001      0.3797073      0.6929779      -0.0662000
C2        0.7887878      0.4298096      0.5104752      -0.0662000
C2        0.7672424      0.6210709      0.3043976      -0.0662000
C2        0.7671432      0.6879196      0.3990555      -0.0662000
C2        0.7669983      0.7021179      0.3846054      -0.0662000
C2        0.7673340      0.6068115      0.3188019      -0.0662000
C2        0.7743988      0.6796188      0.2747040      -0.0662000
C2        0.7758408      0.6297226      0.4285583      -0.0662000
C2        0.7880936      0.7465897      0.3250580      -0.0662000
C2        0.7752380      0.5764236      0.3774109      -0.0662000
C2        0.7894363      0.5619659      0.3772659      -0.0662000
C2        0.7736435      0.7323837      0.3250580      -0.0662000
C2        0.7901001      0.6297226      0.4429626      -0.0662000
C2        0.7887878      0.6798248      0.2604446      -0.0662000
H2        0.7779465      0.3744583      0.2929993       0.1141000
H2        0.7779465      0.4347153      0.4104614       0.1141000
H2        0.7776337      0.4636078      0.3811646       0.1141000
H2        0.7782364      0.3456039      0.3223038       0.1141000
H2        0.7709351      0.4402618      0.2861557       0.1141000
H2        0.7990875      0.5002670      0.3140488       0.1141000
H2        0.7720871      0.3377991      0.3882141       0.1141000
H2        0.8009415      0.3085022      0.3879013       0.1141000
H2        0.7697906      0.4714127      0.3139954       0.1141000
H2        0.8001938      0.4406128      0.2573013       0.1141000
H2        0.7779465      0.6244736      0.5430222       0.1141000
H2        0.7779465      0.6847229      0.6604767       0.1141000
H2        0.7776337      0.7136230      0.6311646       0.1141000
H2        0.7782364      0.5956116      0.5723190       0.1141000
H2        0.7709351      0.6902771      0.5361710       0.1141000
H2        0.7729874      0.6193237      0.6667328       0.1141000
H2        0.7990875      0.7502823      0.5640640       0.1141000
H2        0.7720871      0.5878143      0.6382141       0.1141000
H2        0.8009415      0.5585175      0.6379166       0.1141000
H2        0.7697906      0.7214279      0.5640259       0.1141000
H2        0.8018799      0.6193619      0.6960297       0.1141000
H2        0.8001938      0.6906281      0.5073166       0.1141000
H2        0.7779465      0.3744583      0.5430222       0.1141000
H2        0.7779465      0.4347153      0.6604767       0.1141000
H2        0.7776337      0.4636078      0.6311646       0.1141000
H2        0.7782364      0.3456039      0.5723190       0.1141000
H2        0.7709351      0.4402618      0.5361710       0.1141000
H2        0.7729874      0.3693085      0.6667328       0.1141000
H2        0.7990875      0.5002670      0.5640640       0.1141000
H2        0.7720871      0.3377991      0.6382141       0.1141000
H2        0.8009415      0.3085022      0.6379166       0.1141000
H2        0.7697906      0.4714127      0.5640259       0.1141000
H2        0.8018799      0.3693466      0.6960297       0.1141000
H2        0.8001938      0.4406128      0.5073166       0.1141000
H2        0.7779465      0.6244736      0.2929993       0.1141000
H2        0.7779465      0.6847229      0.4104614       0.1141000
H2        0.7776337      0.7136230      0.3811646       0.1141000
H2        0.7782364      0.5956116      0.3223038       0.1141000
H2        0.7709351      0.6902771      0.2861557       0.1141000
H2        0.7729874      0.6193237      0.4167175       0.1141000
H2        0.7990875      0.7502823      0.3140488       0.1141000
H2        0.7720871      0.5878143      0.3882141       0.1141000
H2        0.8009415      0.5585175      0.3879013       0.1141000
H2        0.7697906      0.7214279      0.3139954       0.1141000
H2        0.8018799      0.6193619      0.4460144       0.1141000
H2        0.8001938      0.6906281      0.2573013       0.1141000
N_c        0.7499390      0.3817062      0.3062973       0.0000000
N_c        0.7500916      0.4268570      0.3971634       0.0000000
N_c        0.7498932      0.4498520      0.3737640       0.0000000
N_c        0.7501907      0.3586960      0.3296661       0.0000000
N_c        0.7635345      0.4124603      0.2724533       0.0000000
N_c        0.7867889      0.5067520      0.3426590       0.0000000
N_c        0.7642441      0.3245468      0.3603592       0.0000000
N_c        0.7871857      0.3011475      0.3601074       0.0000000
N_c        0.7634354      0.4838104      0.3426590       0.0000000
N_c        0.7868881      0.4127121      0.2494583       0.0000000
N_c        0.7499390      0.6317215      0.5563278       0.0000000
N_c        0.7500916      0.6768723      0.6471710       0.0000000
N_c        0.7498932      0.6998672      0.6237640       0.0000000
N_c        0.7501907      0.6087265      0.5796661       0.0000000
N_c        0.7635345      0.6624603      0.5224686       0.0000000
N_c        0.7642899      0.6463623      0.6811829       0.0000000
N_c        0.7867889      0.7567825      0.5926743       0.0000000
N_c        0.7642441      0.5745697      0.6103745       0.0000000
N_c        0.7871857      0.5511780      0.6101227       0.0000000
N_c        0.7634354      0.7338257      0.5926743       0.0000000
N_c        0.7872849      0.6463623      0.7045288       0.0000000
N_c        0.7868881      0.6627121      0.4994736       0.0000000
N_c        0.7499390      0.3817062      0.5563278       0.0000000
N_c        0.7500916      0.4268570      0.6471710       0.0000000
N_c        0.7498932      0.4498520      0.6237640       0.0000000
N_c        0.7501907      0.3586960      0.5796661       0.0000000
N_c        0.7635345      0.4124603      0.5224686       0.0000000
N_c        0.7642899      0.3963623      0.6811829       0.0000000
N_c        0.7867889      0.5067520      0.5926743       0.0000000
N_c        0.7642441      0.3245468      0.6103745       0.0000000
N_c        0.7871857      0.3011475      0.6101227       0.0000000
N_c        0.7634354      0.4838104      0.5926743       0.0000000
N_c        0.7872849      0.3963623      0.7045288       0.0000000
N_c        0.7868881      0.4127121      0.4994736       0.0000000
N_c        0.7499390      0.6317215      0.3062973       0.0000000
N_c        0.7500916      0.6768723      0.3971634       0.0000000
N_c        0.7498932      0.6998672      0.3737640       0.0000000
N_c        0.7501907      0.6087265      0.3296661       0.0000000
N_c        0.7635345      0.6624603      0.2724533       0.0000000
N_c        0.7642899      0.6463623      0.4311676       0.0000000
N_c        0.7867889      0.7567825      0.3426590       0.0000000
N_c        0.7642441      0.5745697      0.3603592       0.0000000
N_c        0.7871857      0.5511780      0.3601074       0.0000000
N_c        0.7634354      0.7338257      0.3426590       0.0000000
N_c        0.7872849      0.6463623      0.4545059       0.0000000
N_c        0.7868881      0.6627121      0.2494583       0.0000000
C1        0.7425842      0.4343567      0.3213501       0.4375000
C1        0.7432938      0.3742905      0.3818588       0.4375000
C1        0.7714844      0.4027634      0.2570496       0.4375000
C1        0.7717361      0.4987640      0.3528137       0.4375000
C1        0.7718353      0.3091507      0.3503494       0.4375000
C1        0.7425842      0.6843719      0.5713654       0.4375000
C1        0.7432938      0.6243210      0.6318741       0.4375000
C1        0.7714844      0.6527634      0.5070648       0.4375000
C1        0.7715836      0.6559143      0.6969833       0.4375000
C1        0.7717361      0.7487793      0.6028290       0.4375000
C1        0.7718353      0.5591660      0.6003647       0.4375000
C1        0.7425842      0.4343567      0.5713654       0.4375000
C1        0.7432938      0.3742905      0.6318741       0.4375000
C1        0.7714844      0.4027634      0.5070648       0.4375000
C1        0.7715836      0.4059143      0.6969833       0.4375000
C1        0.7717361      0.4987640      0.6028290       0.4375000
C1        0.7718353      0.3091507      0.6003647       0.4375000
C1        0.7425842      0.6843719      0.3213501       0.4375000
C1        0.7432938      0.6243210      0.3818588       0.4375000
C1        0.7714844      0.6527634      0.2570496       0.4375000
C1        0.7715836      0.6559143      0.4469528       0.4375000
C1        0.7717361      0.7487793      0.3528137       0.4375000
C1        0.7718353      0.5591660      0.3503494       0.4375000
C3        0.7622452      0.4276657      0.3282700      -0.4606000
C3        0.7618866      0.3824158      0.3736191      -0.4606000
C3        0.7641373      0.3836060      0.2492905      -0.4606000
C3        0.7650375      0.5056076      0.3725128      -0.4606000
C3        0.7640991      0.3017960      0.3312531      -0.4606000
C3        0.7622452      0.6776657      0.5782700      -0.4606000
C3        0.7618866      0.6324158      0.6236191      -0.4606000
C3        0.7641373      0.6336212      0.4993210      -0.4606000
C3        0.7633438      0.6745148      0.7050323      -0.4606000
C3        0.7650375      0.7556381      0.6225128      -0.4606000
C3        0.7640991      0.5518265      0.5812683      -0.4606000
C3        0.7622452      0.4276657      0.5782700      -0.4606000
C3        0.7618866      0.3824158      0.6236191      -0.4606000
C3        0.7641373      0.3836060      0.4993210      -0.4606000
C3        0.7633438      0.4245148      0.7050323      -0.4606000
C3        0.7650375      0.5056076      0.6225128      -0.4606000
C3        0.7640991      0.3017960      0.5812683      -0.4606000
C3        0.7622452      0.6776657      0.3282700      -0.4606000
C3        0.7618866      0.6324158      0.3736191      -0.4606000
C3        0.7641373      0.6336212      0.2492905      -0.4606000
C3        0.7633438      0.6745148      0.4550018      -0.4606000
C3        0.7650375      0.7556381      0.3725128      -0.4606000
C3        0.7640991      0.5518265      0.3312531      -0.4606000
Xe        0.7936859      0.3368454      0.7229843      -0.3500000
Kr        0.7855911      0.3490448      0.7244873       0.3500000
Xe        0.7522964      0.4598999      0.4948654      -0.3500000
Kr        0.7427902      0.4670563      0.5036163       0.3500000
Xe        0.7650986      0.2845535      0.4083099      -0.3500000
Kr        0.7766953      0.2814026      0.4168015       0.3500000
Xe        0.7462311      0.5307541      0.4197006      -0.3500000
Kr        0.7486877      0.5167618      0.4159622       0.3500000
Xe        0.7456894      0.3284454      0.5394669      -0.3500000
Xe        0.7856369      0.5679245      0.4227600      -0.3500000
Kr        0.7931442      0.5734253      0.4341660       0.3500000
Xe        0.7660828      0.7684784      0.2520447      -0.3500000
Kr        0.7742386      0.7708359      0.2400513       0.3500000
Xe        0.7461853      0.4765625      0.4186172      -0.3500000
Kr        0.7440872      0.4639664      0.4259109       0.3500000
Xe        0.7857895      0.5361557      0.6627884      -0.3500000
Kr        0.7808380      0.5226135      0.6658325       0.3500000
Xe        0.7472305      0.7773819      0.2939987      -0.3500000
Kr        0.7570343      0.7665863      0.2960587       0.3500000
Xe        0.7931900      0.7415848      0.2742462      -0.3500000
Kr        0.7827835      0.7314301      0.2766495       0.3500000
Kr        0.7464828      0.5912170      0.5156250       0.3500000
Xe        0.7805328      0.4756012      0.4625626      -0.3500000
Kr        0.7905350      0.4703674      0.4720154       0.3500000
Xe        0.7762985      0.5931702      0.4768524      -0.3500000
Kr        0.7651825      0.5951767      0.4674683       0.3500000
Xe        0.7497330      0.3245010      0.2863007      -0.3500000
Xe        0.7899323      0.5822678      0.6716309      -0.3500000
Kr        0.7849503      0.5722198      0.6811829       0.3500000
Xe        0.7842865      0.2952042      0.4577560      -0.3500000
Kr        0.7988968      0.2936020      0.4583588       0.3500000
Xe        0.7796936      0.4710541      0.7165833      -0.3500000
Kr        0.7817383      0.4707031      0.2311478       0.3500000
Xe        0.7517395      0.4708099      0.2650986      -0.3500000
Xe        0.7846985      0.7205887      0.4821625      -0.3500000
Kr        0.7720413      0.7137756      0.4853134       0.3500000
Xe        0.7445831      0.7255707      0.2892456      -0.3500000
Xe        0.7574463      0.4880676      0.6648331      -0.3500000
Kr        0.7488937      0.4785614      0.6720886       0.3500000
Xe        0.7870941      0.5390091      0.4562531      -0.3500000
Kr        0.7776947      0.5288544      0.4612579       0.3500000
Xe        0.7705002      0.5304184      0.5398788      -0.3500000
Kr        0.7845383      0.5344620      0.5381241       0.3500000
Xe        0.7533875      0.2948914      0.5050735      -0.3500000
Kr        0.7660828      0.2902451      0.4992218       0.3500000
Xe        0.7523422      0.7286758      0.5286179      -0.3500000
Kr        0.7606812      0.7407761      0.5294724       0.3500000
Xe        0.7559891      0.7494278      0.7090759      -0.3500000
Kr        0.7483978      0.7610779      0.7042236       0.3500000
Xe        0.7624359      0.7188797      0.2451477      -0.3500000
Kr        0.7660828      0.7170258      0.2310028       0.3500000
Xe        0.7442932      0.5940704      0.6895218      -0.3500000
Kr        0.7522964      0.5968246      0.7015762       0.3500000
Xe        0.7933350      0.3229980      0.5207748      -0.3500000
Kr        0.7865982      0.3309021      0.5311661       0.3500000
Xe        0.7602386      0.2994537      0.6632843      -0.3500000
Kr        0.7486496      0.3037949      0.6712341       0.3500000
Xe        0.7500916      0.3379898      0.2374496      -0.3500000
Kr        0.7457886      0.4983063      0.4628143       0.3500000
Xe        0.7524872      0.5116577      0.2920532      -0.3500000
Kr        0.7483368      0.5114059      0.2779465       0.3500000
Xe        0.7595901      0.7604752      0.4685516      -0.3500000
Kr        0.7537994      0.7481308      0.4630051       0.3500000
Xe        0.7884903      0.5183640      0.4128189      -0.3500000
Kr        0.7940369      0.5320053      0.4125671       0.3500000
Xe        0.7779465      0.3340073      0.6837234      -0.3500000
Kr        0.7874374      0.3274536      0.6746292       0.3500000
Xe        0.7465439      0.5758209      0.2919922      -0.3500000
Kr        0.7464828      0.5611649      0.2909927       0.3500000
Xe        0.7921448      0.4775620      0.5294724      -0.3500000
Kr        0.7847824      0.4826660      0.5177765       0.3500000
Xe        0.7618866      0.5549164      0.2424927      -0.3500000
Kr        0.7724380      0.5446548      0.2418518       0.3500000
Xe        0.7541351      0.3354034      0.4468689      -0.3500000
Kr        0.7678909      0.3316956      0.4431152       0.3500000
Xe        0.7511368      0.5399628      0.4953613      -0.3500000
Kr        0.7481918      0.5346527      0.5087662       0.3500000
Xe        0.7663345      0.5181580      0.7058258      -0.3500000
Kr        0.7629318      0.5061035      0.7135849       0.3500000
Xe        0.7710419      0.7259293      0.4264145      -0.3500000
Kr        0.7564468      0.7265778      0.4246063       0.3500000
Xe        0.7620392      0.2965012      0.7149353      -0.3500000
Kr        0.7639313      0.3110046      0.7132874       0.3500000
Xe        0.7444992      0.7456284      0.6633301      -0.3500000
Kr        0.7477951      0.7314301      0.6612244       0.3500000
Xe        0.2257614      0.7985306      0.2551041      -0.3500000
Kr        0.2402115      0.7967758      0.2571945       0.3500000
Xe        0.2241135      0.7854309      0.5456161      -0.3500000
Kr        0.2381134      0.7898788      0.5446167       0.3500000
Xe        0.2262039      0.7987366      0.4590607      -0.3500000
Kr        0.2399673      0.7939835      0.4567108       0.3500000
Zn_c      0.3667755      0.7795792      0.2892456       0.3536000
Zn_c      0.6167755      0.7795792      0.2892456       0.3536000
H3        0.3721161      0.7991333      0.3300018       0.1381000
H3        0.3928223      0.8122253      0.3209991       0.1381000
H3        0.3933640      0.8021317      0.3451996       0.1381000
H3        0.3376694      0.8031769      0.3603134       0.1381000
H3        0.3376694      0.8115387      0.3852081       0.1381000
H3        0.3591690      0.8006363      0.3752670       0.1381000
H3        0.6221313      0.7991333      0.5800171       0.1381000
H3        0.6428375      0.8122253      0.5710297       0.1381000
H3        0.6433792      0.8021317      0.5952148       0.1381000
H3        0.5876846      0.8031769      0.6103134       0.1381000
H3        0.5876846      0.8115387      0.6352234       0.1381000
H3        0.6091843      0.8006363      0.6252670       0.1381000
H3        0.3721161      0.7991333      0.5800171       0.1381000
H3        0.3928223      0.8122253      0.5710297       0.1381000
H3        0.3933640      0.8021317      0.5952148       0.1381000
H3        0.3376694      0.8031769      0.6103134       0.1381000
H3        0.3376694      0.8115387      0.6352234       0.1381000
H3        0.3591690      0.8006363      0.6252670       0.1381000
H3        0.6221313      0.7991333      0.3300018       0.1381000
H3        0.6428375      0.8122253      0.3209991       0.1381000
H3        0.6433792      0.8021317      0.3451996       0.1381000
C2        0.3993683      0.8046341      0.3997040      -0.0662000
C2        0.3335190      0.8049698      0.3043976      -0.0662000
C2        0.3190689      0.8048248      0.3185959      -0.0662000
C2        0.4137726      0.8047791      0.3854599      -0.0662000
C2        0.6493835      0.8046341      0.6497192      -0.0662000
C2        0.5835342      0.8049698      0.5544128      -0.0662000
C2        0.5690842      0.8048248      0.5686111      -0.0662000
C2        0.6637878      0.8047791      0.6354752      -0.0662000
C2        0.3993683      0.8046341      0.6497192      -0.0662000
C2        0.3335190      0.8049698      0.5544128      -0.0662000
C2        0.3190689      0.8048248      0.5686111      -0.0662000
C2        0.4137726      0.8047791      0.6354752      -0.0662000
C2        0.6493835      0.8046341      0.3997040      -0.0662000
C2        0.5835342      0.8049698      0.3043976      -0.0662000
C2        0.5690842      0.8048248      0.3185959      -0.0662000
C2        0.6637878      0.8047791      0.3854599      -0.0662000
H2        0.3959274      0.8152771      0.4111557       0.1141000
H2        0.3369217      0.8158340      0.2931442       0.1141000
H2        0.3076630      0.8155212      0.3219986       0.1141000
H2        0.4251785      0.8155823      0.3823166       0.1141000
H2        0.6459274      0.8152771      0.6611710       0.1141000
H2        0.5869370      0.8158340      0.5431747       0.1141000
H2        0.5576782      0.8155212      0.5720139       0.1141000
H2        0.6751938      0.8155823      0.6323166       0.1141000
H2        0.3959274      0.8152771      0.6611710       0.1141000
H2        0.3369217      0.8158340      0.5431747       0.1141000
H2        0.3076630      0.8155212      0.5720139       0.1141000
H2        0.4251785      0.8155823      0.6323166       0.1141000
H2        0.6459274      0.8152771      0.4111557       0.1141000
H2        0.5869370      0.8158340      0.2931442       0.1141000
H2        0.5576782      0.8155212      0.3219986       0.1141000
H2        0.6751938      0.8155823      0.3823166       0.1141000
N_c        0.3885193      0.7875366      0.3974533       0.0000000
N_c        0.3443680      0.7877884      0.3062973       0.0000000
N_c        0.3210678      0.7875824      0.3293076       0.0000000
N_c        0.4118729      0.7877884      0.3744583       0.0000000
N_c        0.6385193      0.7875366      0.6474686       0.0000000
N_c        0.5943756      0.7877884      0.5563278       0.0000000
N_c        0.5710831      0.7875824      0.5793228       0.0000000
N_c        0.6618881      0.7877884      0.6244736       0.0000000
N_c        0.3885193      0.7875366      0.6474686       0.0000000
N_c        0.3443680      0.7877884      0.5563278       0.0000000
N_c        0.3210678      0.7875824      0.5793228       0.0000000
N_c        0.4118729      0.7877884      0.6244736       0.0000000
N_c        0.6385193      0.7875366      0.3974533       0.0000000
N_c        0.5943756      0.7877884      0.3062973       0.0000000
N_c        0.5710831      0.7875824      0.3293076       0.0000000
N_c        0.6618881      0.7877884      0.3744583       0.0000000
C1        0.3360672      0.7802200      0.3819580       0.4375000
C1        0.3966141      0.7809296      0.3219528       0.4375000
C1        0.5860825      0.7802200      0.6319733       0.4375000
C1        0.6466293      0.7809296      0.5719681       0.4375000
C1        0.3360672      0.7802200      0.6319733       0.4375000
C1        0.3966141      0.7809296      0.5719681       0.4375000
C1        0.6466293      0.7809296      0.3219528       0.4375000
C3        0.3429642      0.7998810      0.3752670      -0.4606000
C3        0.3883133      0.7995300      0.3300018      -0.4606000
C3        0.5929794      0.7998810      0.6252670      -0.4606000
C3        0.6383286      0.7995300      0.5800171      -0.4606000
C3        0.3429642      0.7998810      0.6252670      -0.4606000
C3        0.3883133      0.7995300      0.5800171      -0.4606000
C3        0.6383286      0.7995300      0.3300018      -0.4606000
Xe        0.7176437      0.7868271      0.7140198      -0.3500000
Kr        0.7151413      0.8011322      0.7115784       0.3500000
Xe        0.2650528      0.7845764      0.4083099      -0.3500000
Kr        0.2766647      0.7814331      0.4168015       0.3500000
Xe        0.3093109      0.7827225      0.2287979      -0.3500000
Kr        0.3122101      0.7871857      0.7151260       0.3500000
Xe        0.2998505      0.7834320      0.6762772      -0.3500000
Kr        0.2954559      0.7814331      0.6624222       0.3500000
Xe        0.4706726      0.8066330      0.2433014      -0.3500000
Kr        0.4802704      0.7989273      0.2513962       0.3500000
Kr        0.4267654      0.7849350      0.2539444       0.3500000
Xe        0.5448380      0.7819748      0.5327225      -0.3500000
Kr        0.5394363      0.7941284      0.5390701       0.3500000
Xe        0.5134354      0.7888336      0.2870941      -0.3500000
Xe        0.2842560      0.7952347      0.4577560      -0.3500000
Kr        0.2988663      0.7936249      0.4583588       0.3500000
Xe        0.7257919      0.7985306      0.2551041      -0.3500000
Kr        0.7402420      0.7967758      0.2571945       0.3500000
Kr        0.3002625      0.7819290      0.5323715       0.3500000
Xe        0.4241791      0.7831802      0.4829636      -0.3500000
Kr        0.4756165      0.7819748      0.4965744       0.3500000
Xe        0.7241440      0.7854309      0.5456161      -0.3500000
Kr        0.7381439      0.7898788      0.5446167       0.3500000
Xe        0.4993210      0.7895203      0.6520157      -0.3500000
Kr        0.4977798      0.8012390      0.6608124       0.3500000
Xe        0.2533569      0.7949219      0.5050735      -0.3500000
Kr        0.2660522      0.7902756      0.4992218       0.3500000
Kr        0.5280304      0.7836838      0.4111557       0.3500000
Xe        0.5602264      0.7958832      0.4633179      -0.3500000
Kr        0.5588760      0.7890244      0.4503555       0.3500000
Xe        0.2602081      0.7994843      0.6632843      -0.3500000
Kr        0.2486191      0.8038254      0.6712341       0.3500000
Kr        0.4423218      0.7883759      0.4250565       0.3500000
Xe        0.5638733      0.7909775      0.7118759      -0.3500000
Xe        0.7262344      0.7987366      0.4590607      -0.3500000
Kr        0.7399979      0.7939835      0.4567108       0.3500000
Xe        0.6839905      0.7816772      0.4218063      -0.3500000
Kr        0.6869354      0.7921295      0.4317093       0.3500000
Xe        0.5145264      0.7993240      0.4957733      -0.3500000
Kr        0.5216751      0.7866821      0.4933624       0.3500000
Kr        0.7060318      0.7802811      0.2925568       0.3500000
Xe        0.4633179      0.7824326      0.2832565      -0.3500000
Xe        0.2961578      0.7879333      0.2804413      -0.3500000
Xe        0.4757614      0.7906876      0.6994858      -0.3500000
Xe        0.4382706      0.7877884      0.5384674      -0.3500000
Xe        0.7120361      0.7853317      0.6663742      -0.3500000
Xe        0.2620087      0.7965240      0.7149353      -0.3500000
Kr        0.2639084      0.8110352      0.7132874       0.3500000
Xe        0.6721878      0.7939224      0.2426453      -0.3500000
Kr        0.6819916      0.7834320      0.2457047       0.3500000
Xe        0.7650986      0.7845764      0.4083099      -0.3500000
Kr        0.7766953      0.7814331      0.4168015       0.3500000
Xe        0.7842865      0.7952347      0.4577560      -0.3500000
Kr        0.7988968      0.7936249      0.4583588       0.3500000
Xe        0.7533875      0.7949219      0.5050735      -0.3500000
Kr        0.7660828      0.7902756      0.4992218       0.3500000
Xe        0.7602386      0.7994843      0.6632843      -0.3500000
Kr        0.7486496      0.8038254      0.6712341       0.3500000
Xe        0.7620392      0.7965240      0.7149353      -0.3500000
Kr        0.7639313      0.8110352      0.7132874       0.3500000
Xe        0.2150116      0.2532959      0.7516785      -0.3500000
Kr        0.2266617      0.2502060      0.7432785       0.3500000
H3        0.6364746      0.2574005      0.7323837       0.1381000
H3        0.6495285      0.2483521      0.7530746       0.1381000
H3        0.6394806      0.2725449      0.7537231       0.1381000
H3        0.3864746      0.2574005      0.7323837       0.1381000
H3        0.3995132      0.2483521      0.7530746       0.1381000
H3        0.3894653      0.2725449      0.7537231       0.1381000
C2        0.5920868      0.2453918      0.7752762      -0.0662000
C2        0.5920868      0.2310028      0.7610779      -0.0662000
C2        0.3420715      0.2453918      0.7752762      -0.0662000
C2        0.3420715      0.2310028      0.7610779      -0.0662000
H2        0.5816803      0.2484512      0.7870789       0.1141000
H2        0.5816345      0.2191467      0.7582245       0.1141000
H2        0.3316650      0.2484512      0.7870789       0.1141000
H2        0.3316193      0.2191467      0.7582245       0.1141000
N_c        0.6087265      0.2569046      0.7725830       0.0000000
N_c        0.6086807      0.2335510      0.7495270       0.0000000
N_c        0.3587265      0.2569046      0.7725830       0.0000000
N_c        0.3586655      0.2335510      0.7495270       0.0000000
C1        0.6182785      0.2493515      0.7568893       0.4375000
C1        0.3682785      0.2493515      0.7568893       0.4375000
C3        0.6368713      0.2574005      0.7486343      -0.4606000
C3        0.3868713      0.2574005      0.7486343      -0.4606000
Xe        0.2660522      0.2684555      0.7520752      -0.3500000
Kr        0.2742081      0.2708054      0.7400818       0.3500000
Xe        0.4305191      0.2707062      0.7532806      -0.3500000
Xe        0.2931595      0.2415543      0.7742767      -0.3500000
Kr        0.2827530      0.2313995      0.7766800       0.3500000
Xe        0.4762650      0.2564011      0.7426834      -0.3500000
Kr        0.4653168      0.2505417      0.7505722       0.3500000
Kr        0.3064575      0.2375107      0.7358704       0.3500000
Xe        0.5521774      0.2718048      0.7555771      -0.3500000
Kr        0.5383301      0.2714539      0.7505722       0.3500000
Xe        0.7150421      0.2532959      0.7516785      -0.3500000
Kr        0.7266922      0.2502060      0.7432785       0.3500000
Xe        0.4380646      0.2267075      0.7316818      -0.3500000
Kr        0.3025589      0.2792969      0.7703323       0.3500000
Xe        0.7660828      0.2684555      0.7520752      -0.3500000
Kr        0.7742386      0.2708054      0.7400818       0.3500000
Xe        0.7931900      0.2415543      0.7742767      -0.3500000
Kr        0.7827835      0.2313995      0.7766800       0.3500000
Xe        0.2341690      0.5248566      0.7416840      -0.3500000
Kr        0.2225571      0.5158615      0.7427750       0.3500000
Xe        0.2306671      0.5939255      0.7355347      -0.3500000
Kr        0.2378159      0.5901718      0.7478333       0.3500000
Xe        0.2257614      0.2985001      0.7551346      -0.3500000
Kr        0.2402115      0.2967453      0.7572250       0.3500000
Kr        0.2422180      0.4636078      0.7737350       0.3500000
Kr        0.2387543      0.3431396      0.7454224       0.3500000
Xe        0.2150116      0.7533264      0.7516785      -0.3500000
Kr        0.2266617      0.7502365      0.7432785       0.3500000
Zn_c      0.4290771      0.4037704      0.7265320       0.3536000
Zn_c      0.3662720      0.3416595      0.7263794       0.3536000
Zn_c      0.3040161      0.4044113      0.7271805       0.3536000
Zn_c      0.3669205      0.4666595      0.7270737       0.3536000
Zn_c      0.6790924      0.6537704      0.7265320       0.3536000
Zn_c      0.6162720      0.5916748      0.7263794       0.3536000
Zn_c      0.5540314      0.6544113      0.7271805       0.3536000
Zn_c      0.6169357      0.7166748      0.7270737       0.3536000
Zn_c      0.4290771      0.6537704      0.7265320       0.3536000
Zn_c      0.3662720      0.5916748      0.7263794       0.3536000
Zn_c      0.3040161      0.6544113      0.7271805       0.3536000
Zn_c      0.3669205      0.7166748      0.7270737       0.3536000
Zn_c      0.6790924      0.4037704      0.7265320       0.3536000
Zn_c      0.6162720      0.3416595      0.7263794       0.3536000
Zn_c      0.5540314      0.4044113      0.7271805       0.3536000
Zn_c      0.6169357      0.4666595      0.7270737       0.3536000
H3        0.3751144      0.3752518      0.7508240       0.1381000
H3        0.3999710      0.3753510      0.7591248       0.1381000
H3        0.3899231      0.3968048      0.7481766       0.1381000
H3        0.3599167      0.4309998      0.7497330       0.1381000
H3        0.3357239      0.4305038      0.7598267       0.1381000
H3        0.3447189      0.4097595      0.7467346       0.1381000
H3        0.4841690      0.4256058      0.7502823       0.1381000
H3        0.4626236      0.4365082      0.7602234       0.1381000
H3        0.4626694      0.4281616      0.7353745       0.1381000
H3        0.2484512      0.3815613      0.7529297       0.1381000
H3        0.2723694      0.3712463      0.7558289       0.1381000
H3        0.2658615      0.3828125      0.7332840       0.1381000
H3        0.3864746      0.5074158      0.7323837       0.1381000
H3        0.3995132      0.4983673      0.7530746       0.1381000
H3        0.3894653      0.5225601      0.7537231       0.1381000
H3        0.3436737      0.3056946      0.7338715       0.1381000
H3        0.3336639      0.3076935      0.7579727       0.1381000
H3        0.3454208      0.2855072      0.7506790       0.1381000
H3        0.6251297      0.6252670      0.7508240       0.1381000
H3        0.6499863      0.6253662      0.7591248       0.1381000
H3        0.6399384      0.6468201      0.7481766       0.1381000
H3        0.6099319      0.6810150      0.7497330       0.1381000
H3        0.5857239      0.6805191      0.7598267       0.1381000
H3        0.5947342      0.6597672      0.7467346       0.1381000
H3        0.7341995      0.6756210      0.7502823       0.1381000
H3        0.7126389      0.6865234      0.7602234       0.1381000
H3        0.7126846      0.6781616      0.7353745       0.1381000
H3        0.4984818      0.6315613      0.7529297       0.1381000
H3        0.5223846      0.6212769      0.7558289       0.1381000
H3        0.5158768      0.6328125      0.7332840       0.1381000
H3        0.6364746      0.7574310      0.7323837       0.1381000
H3        0.6495285      0.7483826      0.7530746       0.1381000
H3        0.6394806      0.7725830      0.7537231       0.1381000
H3        0.5936737      0.5557251      0.7338715       0.1381000
H3        0.5836792      0.5577240      0.7579727       0.1381000
H3        0.5954208      0.5355072      0.7506790       0.1381000
H3        0.3751144      0.6252670      0.7508240       0.1381000
H3        0.3999710      0.6253662      0.7591248       0.1381000
H3        0.3899231      0.6468201      0.7481766       0.1381000
H3        0.3599167      0.6810150      0.7497330       0.1381000
H3        0.3357239      0.6805191      0.7598267       0.1381000
H3        0.3447189      0.6597672      0.7467346       0.1381000
H3        0.4841690      0.6756210      0.7502823       0.1381000
H3        0.4626236      0.6865234      0.7602234       0.1381000
H3        0.4626694      0.6781616      0.7353745       0.1381000
H3        0.3864746      0.7574310      0.7323837       0.1381000
H3        0.3995132      0.7483826      0.7530746       0.1381000
H3        0.3894653      0.7725830      0.7537231       0.1381000
H3        0.3436737      0.5557251      0.7338715       0.1381000
H3        0.3336639      0.5577240      0.7579727       0.1381000
H3        0.3454208      0.5355072      0.7506790       0.1381000
H3        0.6251297      0.3752518      0.7508240       0.1381000
H3        0.6499863      0.3753510      0.7591248       0.1381000
H3        0.6399384      0.3968048      0.7481766       0.1381000
H3        0.6099319      0.4309998      0.7497330       0.1381000
H3        0.5857239      0.4305038      0.7598267       0.1381000
H3        0.5947342      0.4097595      0.7467346       0.1381000
H3        0.7341995      0.4256058      0.7502823       0.1381000
H3        0.7126389      0.4365082      0.7602234       0.1381000
H3        0.7126846      0.4281616      0.7353745       0.1381000
H3        0.4984818      0.3815613      0.7529297       0.1381000
H3        0.5223846      0.3712463      0.7558289       0.1381000
H3        0.5158768      0.3828125      0.7332840       0.1381000
H3        0.6364746      0.5074158      0.7323837       0.1381000
H3        0.6495285      0.4983673      0.7530746       0.1381000
H3        0.6394806      0.5225601      0.7537231       0.1381000
H3        0.5936737      0.3056946      0.7338715       0.1381000
H3        0.5836792      0.3076935      0.7579727       0.1381000
H3        0.5954208      0.2855072      0.7506790       0.1381000
C2        0.3333130      0.3566513      0.7523804      -0.0662000
C2        0.4002228      0.4514160      0.7524261      -0.0662000
C2        0.4144211      0.4369659      0.7522812      -0.0662000
C2        0.3190689      0.3711014      0.7524872      -0.0662000
C2        0.4589157      0.3774567      0.7733383      -0.0662000
C2        0.2743683      0.4296036      0.7747345      -0.0662000
C2        0.3921127      0.3129044      0.7740707      -0.0662000
C2        0.3420715      0.4954071      0.7752762      -0.0662000
C2        0.3420715      0.4810028      0.7610779      -0.0662000
C2        0.3919678      0.3271027      0.7596207      -0.0662000
C2        0.4447174      0.3774567      0.7588730      -0.0662000
C2        0.2887573      0.4298096      0.7604752      -0.0662000
C2        0.5833282      0.6066666      0.7523804      -0.0662000
C2        0.6502380      0.7014236      0.7524261      -0.0662000
C2        0.6644363      0.6869659      0.7522812      -0.0662000
C2        0.5690842      0.6211166      0.7524872      -0.0662000
C2        0.7089462      0.6274719      0.7733383      -0.0662000
C2        0.5243835      0.6796188      0.7747345      -0.0662000
C2        0.6421280      0.5629196      0.7740707      -0.0662000
C2        0.5920868      0.7454224      0.7752762      -0.0662000
C2        0.5920868      0.7310333      0.7610779      -0.0662000
C2        0.6419830      0.5771179      0.7596207      -0.0662000
C2        0.6947479      0.6274719      0.7588730      -0.0662000
C2        0.5387726      0.6798248      0.7604752      -0.0662000
C2        0.3333130      0.6066666      0.7523804      -0.0662000
C2        0.4002228      0.7014236      0.7524261      -0.0662000
C2        0.4144211      0.6869659      0.7522812      -0.0662000
C2        0.3190689      0.6211166      0.7524872      -0.0662000
C2        0.4589157      0.6274719      0.7733383      -0.0662000
C2        0.3921127      0.5629196      0.7740707      -0.0662000
C2        0.3420715      0.7454224      0.7752762      -0.0662000
C2        0.3420715      0.7310333      0.7610779      -0.0662000
C2        0.3919678      0.5771179      0.7596207      -0.0662000
C2        0.4447174      0.6274719      0.7588730      -0.0662000
C2        0.5833282      0.3566513      0.7523804      -0.0662000
C2        0.6502380      0.4514160      0.7524261      -0.0662000
C2        0.6644363      0.4369659      0.7522812      -0.0662000
C2        0.5690842      0.3711014      0.7524872      -0.0662000
C2        0.7089462      0.3774567      0.7733383      -0.0662000
C2        0.5243835      0.4296036      0.7747345      -0.0662000
C2        0.6421280      0.3129044      0.7740707      -0.0662000
C2        0.5920868      0.4954071      0.7752762      -0.0662000
C2        0.5920868      0.4810028      0.7610779      -0.0662000
C2        0.6419830      0.3271027      0.7596207      -0.0662000
C2        0.6947479      0.3774567      0.7588730      -0.0662000
C2        0.5387726      0.4298096      0.7604752      -0.0662000
H2        0.3366699      0.3451996      0.7630386       0.1141000
H2        0.3970108      0.4628143      0.7632294       0.1141000
H2        0.4259262      0.4335022      0.7629318       0.1141000
H2        0.3077545      0.3744965      0.7633286       0.1141000
H2        0.4626236      0.3664093      0.7843323       0.1141000
H2        0.2709122      0.4402618      0.7861862       0.1141000
H2        0.4029160      0.3097000      0.7854767       0.1141000
H2        0.3316650      0.4984512      0.7870789       0.1141000
H2        0.3316193      0.4691620      0.7582245       0.1141000
H2        0.4025726      0.3385925      0.7561798       0.1141000
H2        0.4338150      0.3664093      0.7549744       0.1141000
H2        0.3001633      0.4406128      0.7573242       0.1141000
H2        0.5866852      0.5952148      0.7630386       0.1141000
H2        0.6470261      0.7128143      0.7632294       0.1141000
H2        0.6759415      0.6835175      0.7629318       0.1141000
H2        0.5577850      0.6245117      0.7633286       0.1141000
H2        0.7126389      0.6164246      0.7843323       0.1141000
H2        0.5209274      0.6902771      0.7861862       0.1141000
H2        0.6529312      0.5597229      0.7854767       0.1141000
H2        0.5816803      0.7484818      0.7870789       0.1141000
H2        0.5816345      0.7191696      0.7582245       0.1141000
H2        0.6525726      0.5886230      0.7561798       0.1141000
H2        0.6838455      0.6164246      0.7549744       0.1141000
H2        0.5501785      0.6906281      0.7573242       0.1141000
H2        0.3366699      0.5952148      0.7630386       0.1141000
H2        0.3970108      0.7128143      0.7632294       0.1141000
H2        0.4259262      0.6835175      0.7629318       0.1141000
H2        0.3077545      0.6245117      0.7633286       0.1141000
H2        0.4626236      0.6164246      0.7843323       0.1141000
H2        0.4029160      0.5597229      0.7854767       0.1141000
H2        0.3316650      0.7484818      0.7870789       0.1141000
H2        0.3316193      0.7191696      0.7582245       0.1141000
H2        0.4025726      0.5886230      0.7561798       0.1141000
H2        0.4338150      0.6164246      0.7549744       0.1141000
H2        0.5866852      0.3451996      0.7630386       0.1141000
H2        0.6470261      0.4628143      0.7632294       0.1141000
H2        0.6759415      0.4335022      0.7629318       0.1141000
H2        0.5577850      0.3744965      0.7633286       0.1141000
H2        0.7126389      0.3664093      0.7843323       0.1141000
H2        0.5209274      0.4402618      0.7861862       0.1141000
H2        0.6529312      0.3097000      0.7854767       0.1141000
H2        0.5816803      0.4984512      0.7870789       0.1141000
H2        0.5816345      0.4691620      0.7582245       0.1141000
H2        0.6525726      0.3385925      0.7561798       0.1141000
H2        0.6838455      0.3664093      0.7549744       0.1141000
H2        0.5501785      0.4406128      0.7573242       0.1141000
N_c        0.3440704      0.3586502      0.7351227       0.0000000
N_c        0.3892136      0.4495163      0.7353745       0.0000000
N_c        0.4122162      0.4261627      0.7351227       0.0000000
N_c        0.3210297      0.3820038      0.7353745       0.0000000
N_c        0.4691162      0.3950577      0.7720871       0.0000000
N_c        0.2635117      0.4124603      0.7724838       0.0000000
N_c        0.3750763      0.3018570      0.7721710       0.0000000
N_c        0.3587265      0.5069122      0.7725830       0.0000000
N_c        0.3586655      0.4835663      0.7495270       0.0000000
N_c        0.3748245      0.3248520      0.7487793       0.0000000
N_c        0.4461746      0.3950577      0.7486725       0.0000000
N_c        0.2868576      0.4127121      0.7494812       0.0000000
N_c        0.5940857      0.6086655      0.7351227       0.0000000
N_c        0.6392288      0.6995163      0.7353745       0.0000000
N_c        0.6622391      0.6761780      0.7351227       0.0000000
N_c        0.5710297      0.6320190      0.7353745       0.0000000
N_c        0.7191467      0.6450729      0.7720871       0.0000000
N_c        0.5135193      0.6624603      0.7724838       0.0000000
N_c        0.6250763      0.5518723      0.7721710       0.0000000
N_c        0.6087265      0.7569275      0.7725830       0.0000000
N_c        0.6086807      0.7335815      0.7495270       0.0000000
N_c        0.6248245      0.5748672      0.7487793       0.0000000
N_c        0.6961899      0.6450729      0.7486725       0.0000000
N_c        0.5368729      0.6627121      0.7494812       0.0000000
N_c        0.3440704      0.6086655      0.7351227       0.0000000
N_c        0.3892136      0.6995163      0.7353745       0.0000000
N_c        0.4122162      0.6761780      0.7351227       0.0000000
N_c        0.3210297      0.6320190      0.7353745       0.0000000
N_c        0.4691162      0.6450729      0.7720871       0.0000000
N_c        0.3750763      0.5518723      0.7721710       0.0000000
N_c        0.3587265      0.7569275      0.7725830       0.0000000
N_c        0.3586655      0.7335815      0.7495270       0.0000000
N_c        0.3748245      0.5748672      0.7487793       0.0000000
N_c        0.4461746      0.6450729      0.7486725       0.0000000
N_c        0.5940857      0.3586502      0.7351227       0.0000000
N_c        0.6392288      0.4495163      0.7353745       0.0000000
N_c        0.6622391      0.4261627      0.7351227       0.0000000
N_c        0.5710297      0.3820038      0.7353745       0.0000000
N_c        0.7191467      0.3950577      0.7720871       0.0000000
N_c        0.5135193      0.4124603      0.7724838       0.0000000
N_c        0.6250763      0.3018570      0.7721710       0.0000000
N_c        0.6087265      0.5069122      0.7725830       0.0000000
N_c        0.6086807      0.4835663      0.7495270       0.0000000
N_c        0.6248245      0.3248520      0.7487793       0.0000000
N_c        0.6961899      0.3950577      0.7486725       0.0000000
N_c        0.5368729      0.4127121      0.7494812       0.0000000
C1        0.3967209      0.3737030      0.7278290       0.4375000
C1        0.3366699      0.4342575      0.7285309       0.4375000
C1        0.4610672      0.4052124      0.7570343       0.4375000
C1        0.2714539      0.4027634      0.7570801       0.4375000
C1        0.3651276      0.3094482      0.7567215       0.4375000
C1        0.3682785      0.4993668      0.7568893       0.4375000
C1        0.6467361      0.6237183      0.7278290       0.4375000
C1        0.5866852      0.6842728      0.7285309       0.4375000
C1        0.7110977      0.6552200      0.7570343       0.4375000
C1        0.5214844      0.6527634      0.7570801       0.4375000
C1        0.6151276      0.5594788      0.7567215       0.4375000
C1        0.6182785      0.7493820      0.7568893       0.4375000
C1        0.3967209      0.6237183      0.7278290       0.4375000
C1        0.3366699      0.6842728      0.7285309       0.4375000
C1        0.4610672      0.6552200      0.7570343       0.4375000
C1        0.3651276      0.5594788      0.7567215       0.4375000
C1        0.3682785      0.7493820      0.7568893       0.4375000
C1        0.6467361      0.3737030      0.7278290       0.4375000
C1        0.5866852      0.4342575      0.7285309       0.4375000
C1        0.7110977      0.4052124      0.7570343       0.4375000
C1        0.5214844      0.4027634      0.7570801       0.4375000
C1        0.6151276      0.3094482      0.7567215       0.4375000
C1        0.6182785      0.4993668      0.7568893       0.4375000
C3        0.3900223      0.3806076      0.7474823      -0.4606000
C3        0.3447800      0.4259567      0.7471771      -0.4606000
C3        0.4679642      0.4249115      0.7503204      -0.4606000
C3        0.2641144      0.3836060      0.7493210      -0.4606000
C3        0.3460236      0.3017044      0.7493820      -0.4606000
C3        0.3868713      0.5074158      0.7486343      -0.4606000
C3        0.6400223      0.6306229      0.7474823      -0.4606000
C3        0.5947800      0.6759720      0.7471771      -0.4606000
C3        0.7179947      0.6749268      0.7503204      -0.4606000
C3        0.5141296      0.6336212      0.7493210      -0.4606000
C3        0.5960236      0.5517197      0.7493820      -0.4606000
C3        0.6368713      0.7574310      0.7486343      -0.4606000
C3        0.3900223      0.6306229      0.7474823      -0.4606000
C3        0.3447800      0.6759720      0.7471771      -0.4606000
C3        0.4679642      0.6749268      0.7503204      -0.4606000
C3        0.3460236      0.5517197      0.7493820      -0.4606000
C3        0.3868713      0.7574310      0.7486343      -0.4606000
C3        0.6400223      0.3806076      0.7474823      -0.4606000
C3        0.5947800      0.4259567      0.7471771      -0.4606000
C3        0.7179947      0.4249115      0.7503204      -0.4606000
C3        0.5141296      0.3836060      0.7493210      -0.4606000
C3        0.5960236      0.3017044      0.7493820      -0.4606000
C3        0.6368713      0.5074158      0.7486343      -0.4606000
Xe        0.2983704      0.5739670      0.7733383      -0.3500000
Kr        0.2918015      0.5870209      0.7750320       0.3500000
Xe        0.5498199      0.3242035      0.7682343      -0.3500000
Kr        0.5484238      0.3107529      0.7739868       0.3500000
Kr        0.4807663      0.5878754      0.7285309       0.3500000
Xe        0.2660522      0.7684784      0.7520752      -0.3500000
Kr        0.2742081      0.7708359      0.7400818       0.3500000
Xe        0.7341995      0.5248566      0.7416840      -0.3500000
Kr        0.7225876      0.5158615      0.7427750       0.3500000
Kr        0.4981766      0.4631577      0.7320328       0.3500000
Xe        0.4889755      0.3483505      0.7277374      -0.3500000
Kr        0.4787674      0.3489532      0.7382889       0.3500000
Xe        0.3093109      0.2826920      0.7288284      -0.3500000
Xe        0.4706726      0.3066101      0.7433319      -0.3500000
Kr        0.4802704      0.2988968      0.7514267       0.3500000
Xe        0.4305191      0.7707291      0.7532806      -0.3500000
Kr        0.4267654      0.2849045      0.7539749       0.3500000
Xe        0.7001877      0.3296967      0.7787247      -0.3500000
Kr        0.6919327      0.3209991      0.7702332       0.3500000
Xe        0.2931595      0.7415848      0.7742767      -0.3500000
Kr        0.2827530      0.7314301      0.7766800       0.3500000
Xe        0.2978058      0.3363419      0.7783813      -0.3500000
Kr        0.2885056      0.3264542      0.7727814       0.3500000
Xe        0.6964798      0.7179260      0.7693787      -0.3500000
Kr        0.6862869      0.7253265      0.7769852       0.3500000
Xe        0.5203323      0.5078125      0.7734222      -0.3500000
Kr        0.5254822      0.4948044      0.7689819       0.3500000
Xe        0.4762650      0.7564316      0.7426834      -0.3500000
Kr        0.4653168      0.7505722      0.7505722       0.3500000
Xe        0.7306976      0.5939255      0.7355347      -0.3500000
Kr        0.7378464      0.5901718      0.7478333       0.3500000
Xe        0.4647141      0.5797272      0.7674789      -0.3500000
Kr        0.4781189      0.5779724      0.7733841       0.3500000
Xe        0.6836395      0.5807648      0.7338257      -0.3500000
Kr        0.6891403      0.5927200      0.7271805       0.3500000
Kr        0.5371246      0.3463516      0.7331390       0.3500000
Kr        0.2817078      0.4707031      0.7311783       0.3500000
Xe        0.7257919      0.2985001      0.7551346      -0.3500000
Kr        0.7402420      0.2967453      0.7572250       0.3500000
Xe        0.2517090      0.4708099      0.7651291      -0.3500000
Kr        0.7422485      0.4636078      0.7737350       0.3500000
Xe        0.5542221      0.4885635      0.7362823      -0.3500000
Xe        0.7093430      0.4938049      0.7729874      -0.3500000
Kr        0.6974869      0.4858170      0.7697754       0.3500000
Xe        0.4546204      0.4683609      0.7371826      -0.3500000
Kr        0.4465103      0.4741135      0.7262802       0.3500000
Kr        0.3064575      0.7375336      0.7358704       0.3500000
Xe        0.5218811      0.7102737      0.7360382      -0.3500000
Kr        0.5349350      0.7137756      0.7302856       0.3500000
Xe        0.4333115      0.5414658      0.7648315      -0.3500000
Kr        0.4430695      0.5471191      0.7742767       0.3500000
Xe        0.5521774      0.7718353      0.7555771      -0.3500000
Kr        0.5383301      0.7714844      0.7505722       0.3500000
Xe        0.5162277      0.3028564      0.7276306      -0.3500000
Xe        0.4907761      0.4741592      0.7715836      -0.3500000
Kr        0.4781647      0.4685516      0.7766800       0.3500000
Xe        0.6815338      0.4776077      0.7336197      -0.3500000
Xe        0.4658737      0.5153656      0.7448807      -0.3500000
Kr        0.4786606      0.5086060      0.7421875       0.3500000
Xe        0.2624054      0.7188797      0.7451706      -0.3500000
Kr        0.2660522      0.7170258      0.7310333       0.3500000
Xe        0.5076828      0.5601654      0.7472763      -0.3500000
Kr        0.5158310      0.5479584      0.7461319       0.3500000
Xe        0.2500610      0.3379898      0.7374802      -0.3500000
Kr        0.7387848      0.3431396      0.7454224       0.3500000
Kr        0.4221191      0.5717163      0.7287216       0.3500000
Xe        0.7150421      0.7533264      0.7516785      -0.3500000
Kr        0.7266922      0.7502365      0.7432785       0.3500000
Xe        0.7024841      0.3374481      0.7265778      -0.3500000
Xe        0.5540314      0.5373154      0.7264252      -0.3500000
Xe        0.6813889      0.5271606      0.7493210      -0.3500000
Kr        0.6800461      0.5376511      0.7391281       0.3500000
Kr        0.7028427      0.7132721      0.7291794       0.3500000
Xe        0.5332260      0.5930710      0.7670822      -0.3500000
Kr        0.5399323      0.5818710      0.7738266       0.3500000
Xe        0.2618637      0.5549164      0.7425232      -0.3500000
Kr        0.2724075      0.5446548      0.7418747       0.3500000
Xe        0.5534897      0.5445557      0.7670212      -0.3500000
Kr        0.5563278      0.5320663      0.7742386       0.3500000
Xe        0.4395218      0.3222504      0.7733841      -0.3500000
Kr        0.4531174      0.3261032      0.7774887       0.3500000
Xe        0.4380646      0.7267380      0.7316818      -0.3500000
Xe        0.2961578      0.2879028      0.7804718      -0.3500000
Kr        0.3025589      0.7793274      0.7703323       0.3500000
Xe        0.4788284      0.7196274      0.7694244      -0.3500000
Kr        0.4928818      0.7152176      0.7702789       0.3500000
Xe        0.6721878      0.2938919      0.7426834      -0.3500000
Kr        0.6819916      0.2834015      0.7457352       0.3500000
Xe        0.2963638      0.5093155      0.7429352      -0.3500000
Kr        0.3107529      0.5122147      0.7434845       0.3500000
H3        0.7484818      0.3815613      0.7529297       0.1381000
H3        0.7723923      0.3712463      0.7558289       0.1381000
H3        0.7658920      0.3828125      0.7332840       0.1381000
H3        0.7484818      0.6315613      0.7529297       0.1381000
H3        0.7723923      0.6212769      0.7558289       0.1381000
H3        0.7658920      0.6328125      0.7332840       0.1381000
C2        0.7743988      0.4296036      0.7747345      -0.0662000
C2        0.7887878      0.4298096      0.7604752      -0.0662000
C2        0.7743988      0.6796188      0.7747345      -0.0662000
C2        0.7887878      0.6798248      0.7604752      -0.0662000
H2        0.7709351      0.4402618      0.7861862       0.1141000
H2        0.8001938      0.4406128      0.7573242       0.1141000
H2        0.7709351      0.6902771      0.7861862       0.1141000
H2        0.8001938      0.6906281      0.7573242       0.1141000
N_c        0.7635345      0.4124603      0.7724838       0.0000000
N_c        0.7868881      0.4127121      0.7494812       0.0000000
N_c        0.7635345      0.6624603      0.7724838       0.0000000
N_c        0.7868881      0.6627121      0.7494812       0.0000000
C1        0.7714844      0.4027634      0.7570801       0.4375000
C1        0.7714844      0.6527634      0.7570801       0.4375000
C3        0.7641373      0.3836060      0.7493210      -0.4606000
C3        0.7641373      0.6336212      0.7493210      -0.4606000
Xe        0.7660828      0.7684784      0.7520752      -0.3500000
Kr        0.7742386      0.7708359      0.7400818       0.3500000
Xe        0.7931900      0.7415848      0.7742767      -0.3500000
Kr        0.7827835      0.7314301      0.7766800       0.3500000
Kr        0.7817383      0.4707031      0.7311783       0.3500000
Xe        0.7517395      0.4708099      0.7651291      -0.3500000
Xe        0.7624359      0.7188797      0.7451706      -0.3500000
Kr        0.7660828      0.7170258      0.7310333       0.3500000
Xe        0.7500916      0.3379898      0.7374802      -0.3500000
Xe        0.7618866      0.5549164      0.7425232      -0.3500000
Kr        0.7724380      0.5446548      0.7418747       0.3500000
Xe        0.2257614      0.7985306      0.7551346      -0.3500000
Kr        0.2402115      0.7967758      0.7572250       0.3500000
Xe        0.3093109      0.7827225      0.7288284      -0.3500000
Xe        0.4706726      0.8066330      0.7433319      -0.3500000
Kr        0.4802704      0.7989273      0.7514267       0.3500000
Kr        0.4267654      0.7849350      0.7539749       0.3500000
Xe        0.7257919      0.7985306      0.7551346      -0.3500000
Kr        0.7402420      0.7967758      0.7572250       0.3500000
Xe        0.2961578      0.7879333      0.7804718      -0.3500000
Xe        0.6721878      0.7939224      0.7426834      -0.3500000
Kr        0.6819916      0.7834320      0.7457352       0.3500000
Zn_s       0.3561859      0.5248795      0.4065247       0.0884000
N_s        0.3496399      0.5222626      0.4013901      -0.4203000
Zn_s       0.3701096      0.5188370      0.4220047       0.0884000
N_s        0.3727112      0.5122757      0.4270401      -0.4203000
Zn_s       0.3762360      0.5327606      0.4067078       0.0884000
N_s        0.3829041      0.5353394      0.4016800      -0.4203000
Zn_s       0.3621979      0.5388794      0.4220276       0.0884000
N_s        0.3595963      0.5455017      0.4271317      -0.4203000
Zn_s       0.4871979      0.4138718      0.2970200       0.0884000
N_s        0.4845963      0.4204941      0.3021164      -0.4203000
Zn_s       0.4811859      0.3998795      0.2815094       0.0884000
N_s        0.4746399      0.3972702      0.2763901      -0.4203000
Zn_s       0.4951096      0.3938370      0.2969894       0.0884000
N_s        0.4977112      0.3872757      0.3020248      -0.4203000
Zn_s       0.5012436      0.4077454      0.2816925       0.0884000
N_s        0.5078964      0.4103012      0.2766800      -0.4203000
Zn_s       0.3566589      0.2832489      0.2969437       0.0884000
N_s        0.3499908      0.2856827      0.3020172      -0.4203000
Zn_s       0.3705292      0.2896271      0.2815170       0.0884000
N_s        0.3729935      0.2962570      0.2764435      -0.4203000
Zn_s       0.3769379      0.2758408      0.2968826       0.0884000
N_s        0.3836288      0.2734070      0.3019104      -0.4203000
Zn_s       0.3631287      0.2693024      0.2816849       0.0884000
N_s        0.3607483      0.2625961      0.2767410      -0.4203000
Zn_s       0.4881058      0.3943176      0.4067078       0.0884000
N_s        0.4857025      0.3875961      0.4017563      -0.4203000
Zn_s       0.4816589      0.4082870      0.4219513       0.0884000
N_s        0.4749832      0.4107513      0.4270325      -0.4203000
Zn_s       0.4955292      0.4146423      0.4065323       0.0884000
N_s        0.4979935      0.4212570      0.4014587      -0.4203000
Zn_s       0.5019379      0.4008560      0.4218979       0.0884000
N_s        0.5086288      0.3984222      0.4269257      -0.4203000
Zn_s       0.4214630      0.4138794      0.2303848       0.0884000
N_s        0.4164505      0.4205399      0.2329330      -0.4203000
Zn_s       0.4368057      0.3998337      0.2365112       0.0884000
N_s        0.4418793      0.3972473      0.2430878      -0.4203000
Zn_s       0.4212799      0.3938217      0.2225266       0.0884000
N_s        0.4161453      0.3872757      0.2199097      -0.4203000
Zn_s       0.3562393      0.3493423      0.2303009       0.0884000
N_s        0.3496475      0.3543777      0.2328949      -0.4203000
Zn_s       0.3701401      0.3340530      0.2364807       0.0884000
N_s        0.3726730      0.3290787      0.2431183      -0.4203000
Zn_s       0.3762741      0.3493958      0.2224197       0.0884000
N_s        0.3828659      0.3544998      0.2198257      -0.4203000
Zn_s       0.3117065      0.3942871      0.2308502       0.0884000
N_s        0.3167572      0.3876343      0.2332840      -0.4203000
Zn_s       0.2962723      0.4081573      0.2372208       0.0884000
N_s        0.2911606      0.4106293      0.2438660      -0.4203000
Zn_s       0.3116531      0.4145813      0.2234497       0.0884000
N_s        0.3166809      0.4212646      0.2210083      -0.4203000
Zn_s       0.3769913      0.4589157      0.2307968       0.0884000
N_s        0.3836212      0.4538193      0.2332611      -0.4203000
Zn_s       0.3631897      0.4743042      0.2371979       0.0884000
N_s        0.3607407      0.4793167      0.2438583      -0.4203000
Zn_s       0.3566895      0.4590912      0.2233887       0.0884000
N_s        0.3499603      0.4541168      0.2209854      -0.4203000
Zn_s       0.4872742      0.4589233      0.3414230       0.0884000
N_s        0.4846344      0.4537811      0.3348694      -0.4203000
Zn_s       0.4812317      0.4743805      0.3553162       0.0884000
N_s        0.4746552      0.4794083      0.3579102      -0.4203000
Zn_s       0.4951630      0.4591064      0.3614731       0.0884000
N_s        0.4977264      0.4540863      0.3681412      -0.4203000
Zn_s       0.5012894      0.4744415      0.3474274       0.0884000
N_s        0.5078735      0.4795227      0.3448410      -0.4203000
Zn_s       0.4881973      0.3492966      0.3622131       0.0884000
N_s        0.4857407      0.3543091      0.3688736      -0.4203000
Zn_s       0.4816895      0.3341064      0.3483963       0.0884000
N_s        0.4749680      0.3291550      0.3460007      -0.4203000
Zn_s       0.4956589      0.3493500      0.3419418       0.0884000
N_s        0.4981079      0.3544159      0.3352890      -0.4203000
Zn_s       0.5020142      0.3339233      0.3558121       0.0884000
N_s        0.5086365      0.3288422      0.3582764      -0.4203000
Zn_s       0.3117599      0.5248337      0.3615112       0.0884000
N_s        0.3168716      0.5222397      0.3681030      -0.4203000
Zn_s       0.2962265      0.5188293      0.3475189       0.0884000
N_s        0.2910843      0.5122681      0.3448792      -0.4203000
Zn_s       0.3117142      0.5327377      0.3414917       0.0884000
N_s        0.3167953      0.5353622      0.3348770      -0.4203000
Zn_s       0.2964020      0.5388870      0.3553925       0.0884000
N_s        0.2913895      0.5455551      0.3579483      -0.4203000
Zn_s       0.4214630      0.5257950      0.3419189       0.0884000
N_s        0.4165115      0.5233994      0.3351974      -0.4203000
Zn_s       0.4366989      0.5193253      0.3558655       0.0884000
N_s        0.4417648      0.5126343      0.3583069      -0.4203000
Zn_s       0.4212723      0.5332031      0.3622284       0.0884000
N_s        0.4161758      0.5356750      0.3688660      -0.4203000
Zn_s       0.4366608      0.5396118      0.3484344       0.0884000
N_s        0.4416809      0.5462723      0.3459854      -0.4203000
Zn_s       0.6061859      0.7749100      0.6565323       0.0884000
N_s        0.5996552      0.7722931      0.6514053      -0.4203000
Zn_s       0.6201019      0.7688599      0.6720200       0.0884000
N_s        0.6227112      0.7622910      0.6770554      -0.4203000
Zn_s       0.6262360      0.7827911      0.6567230       0.0884000
N_s        0.6329041      0.7853699      0.6516953      -0.4203000
Zn_s       0.7372131      0.6638947      0.5470352       0.0884000
N_s        0.7346268      0.6705017      0.5521240      -0.4203000
Zn_s       0.7312012      0.6498947      0.5315247       0.0884000
N_s        0.7246704      0.6472855      0.5264053      -0.4203000
Zn_s       0.7451172      0.6438522      0.5470123       0.0884000
N_s        0.7477264      0.6372833      0.5520554      -0.4203000
Zn_s       0.7512589      0.6577530      0.5317078       0.0884000
N_s        0.7579117      0.6603012      0.5266953      -0.4203000
Zn_s       0.6066589      0.5332642      0.5469742       0.0884000
N_s        0.5999985      0.5356979      0.5520477      -0.4203000
Zn_s       0.6205215      0.5396423      0.5315475       0.0884000
N_s        0.6229935      0.5462723      0.5264664      -0.4203000
Zn_s       0.6269455      0.5258560      0.5469055       0.0884000
N_s        0.6336212      0.5234222      0.5519257      -0.4203000
Zn_s       0.6131363      0.5193100      0.5317154       0.0884000
N_s        0.6107483      0.5126038      0.5267715      -0.4203000
Zn_s       0.7381287      0.6443329      0.6567230       0.0884000
N_s        0.7357254      0.6376038      0.6517639      -0.4203000
Zn_s       0.7316742      0.6582947      0.6719742       0.0884000
N_s        0.7250061      0.6607513      0.6770477      -0.4203000
Zn_s       0.7455444      0.6646500      0.6565399       0.0884000
N_s        0.7480087      0.6712723      0.6514664      -0.4203000
Zn_s       0.7519531      0.6508636      0.6719131       0.0884000
N_s        0.7586441      0.6484222      0.6769409      -0.4203000
Zn_s       0.6714783      0.6638870      0.4803925       0.0884000
N_s        0.6664658      0.6705551      0.4829483      -0.4203000
Zn_s       0.6868210      0.6498413      0.4865265       0.0884000
N_s        0.6918945      0.6472549      0.4931107      -0.4203000
Zn_s       0.6712952      0.6438293      0.4725418       0.0884000
N_s        0.6661682      0.6372910      0.4699249      -0.4203000
Zn_s       0.6867599      0.6577454      0.4664764       0.0884000
N_s        0.6917877      0.6603546      0.4598923      -0.4203000
Zn_s       0.6062393      0.5993576      0.4803085       0.0884000
N_s        0.5996628      0.6043930      0.4829102      -0.4203000
Zn_s       0.6201401      0.5840759      0.4864883       0.0884000
N_s        0.6226730      0.5790863      0.4931335      -0.4203000
Zn_s       0.6262817      0.5994110      0.4724274       0.0884000
N_s        0.6328812      0.6045151      0.4698410      -0.4203000
Zn_s       0.6122742      0.5838928      0.4664078       0.0884000
N_s        0.6096497      0.5787888      0.4598770      -0.4203000
Zn_s       0.5617218      0.6442871      0.4808731       0.0884000
N_s        0.5667572      0.6376495      0.4832993      -0.4203000
Zn_s       0.5462875      0.6581573      0.4872284       0.0884000
N_s        0.5411758      0.6606293      0.4938812      -0.4203000
Zn_s       0.5616684      0.6645813      0.4734573       0.0884000
N_s        0.5666809      0.6712646      0.4710236      -0.4203000
Zn_s       0.5464630      0.6507721      0.4669266       0.0884000
N_s        0.5414886      0.6483841      0.4601974      -0.4203000
Zn_s       0.6269989      0.7089233      0.4808044       0.0884000
N_s        0.6336365      0.7038193      0.4832764      -0.4203000
Zn_s       0.6132050      0.7243195      0.4872131       0.0884000
N_s        0.6107559      0.7293320      0.4938736      -0.4203000
Zn_s       0.6066971      0.7091064      0.4734039       0.0884000
N_s        0.5999603      0.7041321      0.4709930      -0.4203000
Zn_s       0.6206589      0.7243729      0.4669495       0.0884000
N_s        0.6231079      0.7294464      0.4602890      -0.4203000
Zn_s       0.7372971      0.7089233      0.5914307       0.0884000
N_s        0.7346649      0.7037964      0.5848923      -0.4203000
Zn_s       0.7312469      0.7243881      0.6053314       0.0884000
N_s        0.7246628      0.7294159      0.6079254      -0.4203000
Zn_s       0.7451782      0.7091064      0.6114883       0.0884000
N_s        0.7477341      0.7040939      0.6181412      -0.4203000
Zn_s       0.7512970      0.7244492      0.5974426       0.0884000
N_s        0.7578812      0.7295303      0.5948563      -0.4203000
Zn_s       0.7382050      0.5993118      0.6122284       0.0884000
N_s        0.7357712      0.6043167      0.6188736      -0.4203000
Zn_s       0.7316971      0.5841217      0.5984039       0.0884000
N_s        0.7249832      0.5791702      0.5960007      -0.4203000
Zn_s       0.7456589      0.5993652      0.5919647       0.0884000
N_s        0.7481232      0.6044464      0.5852890      -0.4203000
Zn_s       0.7520142      0.5839462      0.6058273       0.0884000
N_s        0.7586441      0.5788574      0.6082916      -0.4203000
Zn_s       0.5617752      0.7748566      0.6115189       0.0884000
N_s        0.5668716      0.7722702      0.6181107      -0.4203000
Zn_s       0.5462418      0.7688446      0.5975189       0.0884000
N_s        0.5411148      0.7623062      0.5948944      -0.4203000
Zn_s       0.5617294      0.7827530      0.5914993       0.0884000
N_s        0.5668106      0.7853775      0.5848846      -0.4203000
Zn_s       0.6714935      0.7758102      0.5919189       0.0884000
N_s        0.6665421      0.7734146      0.5852051      -0.4203000
Zn_s       0.6867218      0.7693405      0.6058731       0.0884000
N_s        0.6917801      0.7626648      0.6083145      -0.4203000
Zn_s       0.6713028      0.7832260      0.6122284       0.0884000
N_s        0.6661911      0.7857056      0.6188812      -0.4203000
Zn_s       0.3561859      0.7749100      0.6565399       0.0884000
N_s        0.3496399      0.7722931      0.6514053      -0.4203000
Zn_s       0.3701019      0.7688599      0.6720200       0.0884000
N_s        0.3727112      0.7622910      0.6770554      -0.4203000
Zn_s       0.3762360      0.7827911      0.6567230       0.0884000
N_s        0.3829041      0.7853699      0.6516953      -0.4203000
Zn_s       0.4951096      0.6438522      0.5470123       0.0884000
N_s        0.4977112      0.6372833      0.5520554      -0.4203000
Zn_s       0.5012436      0.6577530      0.5317078       0.0884000
N_s        0.5078964      0.6603012      0.5266953      -0.4203000
Zn_s       0.4871979      0.6638870      0.5470352       0.0884000
N_s        0.4845963      0.6705093      0.5521240      -0.4203000
Zn_s       0.4811859      0.6498947      0.5315247       0.0884000
N_s        0.4746399      0.6472778      0.5263977      -0.4203000
Zn_s       0.3566589      0.5332642      0.5469742       0.0884000
N_s        0.3499908      0.5356979      0.5520477      -0.4203000
Zn_s       0.3705215      0.5396423      0.5315475       0.0884000
N_s        0.3729935      0.5462723      0.5264664      -0.4203000
Zn_s       0.3769455      0.5258560      0.5469055       0.0884000
N_s        0.3836212      0.5234222      0.5519257      -0.4203000
Zn_s       0.3631363      0.5193100      0.5317154       0.0884000
N_s        0.3607483      0.5126038      0.5267715      -0.4203000
Zn_s       0.4955292      0.6646500      0.6565399       0.0884000
N_s        0.4979935      0.6712723      0.6514664      -0.4203000
Zn_s       0.5019379      0.6508636      0.6719131       0.0884000
N_s        0.5086288      0.6484222      0.6769409      -0.4203000
Zn_s       0.4881058      0.6443329      0.6567230       0.0884000
N_s        0.4857025      0.6376038      0.6517639      -0.4203000
Zn_s       0.4816589      0.6582947      0.6719742       0.0884000
N_s        0.4749908      0.6607513      0.6770477      -0.4203000
Zn_s       0.4214630      0.6638870      0.4803925       0.0884000
N_s        0.4164429      0.6705551      0.4829483      -0.4203000
Zn_s       0.4368057      0.6498413      0.4865265       0.0884000
N_s        0.4418793      0.6472549      0.4931107      -0.4203000
Zn_s       0.4212799      0.6438293      0.4725418       0.0884000
N_s        0.4161453      0.6372833      0.4699249      -0.4203000
Zn_s       0.4367447      0.6577454      0.4664764       0.0884000
N_s        0.4417725      0.6603546      0.4598923      -0.4203000
Zn_s       0.3562393      0.5993500      0.4803085       0.0884000
N_s        0.3496475      0.6043930      0.4829102      -0.4203000
Zn_s       0.3701401      0.5840759      0.4864883       0.0884000
N_s        0.3726730      0.5790863      0.4931335      -0.4203000
Zn_s       0.3762741      0.5994110      0.4724274       0.0884000
N_s        0.3828659      0.6045074      0.4698410      -0.4203000
Zn_s       0.3622665      0.5838928      0.4664078       0.0884000
N_s        0.3596344      0.5787888      0.4598770      -0.4203000
Zn_s       0.3117065      0.6442871      0.4808655       0.0884000
N_s        0.3167572      0.6376419      0.4832993      -0.4203000
Zn_s       0.2962723      0.6581573      0.4872284       0.0884000
N_s        0.2911606      0.6606293      0.4938812      -0.4203000
Zn_s       0.3116531      0.6645813      0.4734573       0.0884000
N_s        0.3166809      0.6712646      0.4710236      -0.4203000
Zn_s       0.2964401      0.6507797      0.4669266       0.0884000
N_s        0.2914581      0.6483841      0.4601898      -0.4203000
Zn_s       0.3769913      0.7089233      0.4808044       0.0884000
N_s        0.3836212      0.7038193      0.4832764      -0.4203000
Zn_s       0.3631897      0.7243195      0.4872131       0.0884000
N_s        0.3607407      0.7293320      0.4938736      -0.4203000
Zn_s       0.3566895      0.7091064      0.4734039       0.0884000
N_s        0.3499603      0.7041321      0.4709930      -0.4203000
Zn_s       0.3706512      0.7243729      0.4669495       0.0884000
N_s        0.3731079      0.7294464      0.4602814      -0.4203000
Zn_s       0.4951630      0.7091064      0.6114807       0.0884000
N_s        0.4977264      0.7040939      0.6181412      -0.4203000
Zn_s       0.5012817      0.7244415      0.5974426       0.0884000
N_s        0.5078735      0.7295380      0.5948563      -0.4203000
Zn_s       0.4872742      0.7089310      0.5914307       0.0884000
N_s        0.4846344      0.7037964      0.5848846      -0.4203000
Zn_s       0.4812317      0.7243881      0.6053238       0.0884000
N_s        0.4746475      0.7294159      0.6079254      -0.4203000
Zn_s       0.4956589      0.5993729      0.5919571       0.0884000
N_s        0.4981079      0.6044464      0.5852890      -0.4203000
Zn_s       0.5020142      0.5839386      0.6058273       0.0884000
N_s        0.5086365      0.5788651      0.6082916      -0.4203000
Zn_s       0.4881973      0.5993118      0.6122208       0.0884000
N_s        0.4857407      0.6043167      0.6188736      -0.4203000
Zn_s       0.4816895      0.5841217      0.5984116       0.0884000
N_s        0.4749680      0.5791702      0.5960007      -0.4203000
Zn_s       0.3117599      0.7748566      0.6115189       0.0884000
N_s        0.3168716      0.7722702      0.6181183      -0.4203000
Zn_s       0.2962265      0.7688446      0.5975266       0.0884000
N_s        0.2910919      0.7623062      0.5948944      -0.4203000
Zn_s       0.3117142      0.7827530      0.5914993       0.0884000
N_s        0.3167953      0.7853775      0.5848846      -0.4203000
Zn_s       0.4214630      0.7758102      0.5919189       0.0884000
N_s        0.4165115      0.7734146      0.5852051      -0.4203000
Zn_s       0.4366989      0.7693405      0.6058731       0.0884000
N_s        0.4417648      0.7626648      0.6083145      -0.4203000
Zn_s       0.4212799      0.7832260      0.6122360       0.0884000
N_s        0.4161758      0.7857056      0.6188812      -0.4203000
Zn_s       0.6262360      0.5327606      0.6567230       0.0884000
N_s        0.6329041      0.5353394      0.6516953      -0.4203000
Zn_s       0.6122055      0.5388794      0.6720428       0.0884000
N_s        0.6096115      0.5455017      0.6771393      -0.4203000
Zn_s       0.6061859      0.5248795      0.6565323       0.0884000
N_s        0.5996552      0.5222702      0.6514053      -0.4203000
Zn_s       0.6201096      0.5188370      0.6720200       0.0884000
N_s        0.6227112      0.5122757      0.6770554      -0.4203000
Zn_s       0.7372131      0.4138794      0.5470352       0.0884000
N_s        0.7346268      0.4204941      0.5521240      -0.4203000
Zn_s       0.7312012      0.3998795      0.5315247       0.0884000
N_s        0.7246704      0.3972702      0.5264053      -0.4203000
Zn_s       0.7451172      0.3938370      0.5470123       0.0884000
N_s        0.7477264      0.3872681      0.5520554      -0.4203000
Zn_s       0.7512589      0.4077454      0.5317078       0.0884000
N_s        0.7579117      0.4103012      0.5266953      -0.4203000
Zn_s       0.6269455      0.7758713      0.5469055       0.0884000
N_s        0.6336212      0.7734375      0.5519257      -0.4203000
Zn_s       0.6131363      0.7693253      0.5317154       0.0884000
N_s        0.6107483      0.7626190      0.5267715      -0.4203000
Zn_s       0.6066589      0.7832870      0.5469742       0.0884000
N_s        0.5999985      0.7857285      0.5520477      -0.4203000
Zn_s       0.7381287      0.3943176      0.6567230       0.0884000
N_s        0.7357254      0.3876038      0.6517715      -0.4203000
Zn_s       0.7316818      0.4082870      0.6719742       0.0884000
N_s        0.7250061      0.4107513      0.6770477      -0.4203000
Zn_s       0.7455444      0.4146423      0.6565399       0.0884000
N_s        0.7480087      0.4212570      0.6514664      -0.4203000
Zn_s       0.7519531      0.4008560      0.6719131       0.0884000
N_s        0.7586441      0.3984222      0.6769409      -0.4203000
Zn_s       0.6714783      0.4138870      0.4804001       0.0884000
N_s        0.6664734      0.4205399      0.4829483      -0.4203000
Zn_s       0.6868134      0.3998337      0.4865265       0.0884000
N_s        0.6918945      0.3972473      0.4931107      -0.4203000
Zn_s       0.6713028      0.3938217      0.4725418       0.0884000
N_s        0.6661682      0.3872757      0.4699249      -0.4203000
Zn_s       0.6867599      0.4077454      0.4664764       0.0884000
N_s        0.6917877      0.4103546      0.4598923      -0.4203000
Zn_s       0.6062393      0.3493423      0.4803085       0.0884000
N_s        0.5996628      0.3543777      0.4829102      -0.4203000
Zn_s       0.6201401      0.3340607      0.4864883       0.0884000
N_s        0.6226730      0.3290710      0.4931335      -0.4203000
Zn_s       0.6262741      0.3493958      0.4724274       0.0884000
N_s        0.6328812      0.3544998      0.4698410      -0.4203000
Zn_s       0.6122742      0.3338776      0.4664078       0.0884000
N_s        0.6096497      0.3287735      0.4598770      -0.4203000
Zn_s       0.5617142      0.3942871      0.4808655       0.0884000
N_s        0.5667572      0.3876343      0.4832993      -0.4203000
Zn_s       0.5462875      0.4081573      0.4872284       0.0884000
N_s        0.5411758      0.4106293      0.4938812      -0.4203000
Zn_s       0.5616684      0.4145813      0.4734573       0.0884000
N_s        0.5666809      0.4212646      0.4710236      -0.4203000
Zn_s       0.5464630      0.4007721      0.4669266       0.0884000
N_s        0.5414886      0.3983841      0.4601974      -0.4203000
Zn_s       0.6270065      0.4589157      0.4808121       0.0884000
N_s        0.6336365      0.4538193      0.4832764      -0.4203000
Zn_s       0.6132050      0.4743042      0.4872131       0.0884000
N_s        0.6107559      0.4793167      0.4938736      -0.4203000
Zn_s       0.6066971      0.4590912      0.4734039       0.0884000
N_s        0.5999603      0.4541168      0.4709930      -0.4203000
Zn_s       0.6206589      0.4743576      0.4669495       0.0884000
N_s        0.6231079      0.4794312      0.4602890      -0.4203000
Zn_s       0.7372971      0.4589233      0.5914307       0.0884000
N_s        0.7346649      0.4537888      0.5848846      -0.4203000
Zn_s       0.7312469      0.4743805      0.6053314       0.0884000
N_s        0.7246704      0.4794083      0.6079254      -0.4203000
Zn_s       0.7451782      0.4590988      0.6114807       0.0884000
N_s        0.7477341      0.4540863      0.6181412      -0.4203000
Zn_s       0.7512970      0.4744415      0.5974350       0.0884000
N_s        0.7578735      0.4795227      0.5948563      -0.4203000
Zn_s       0.7382050      0.3493042      0.6122284       0.0884000
N_s        0.7357712      0.3543015      0.6188736      -0.4203000
Zn_s       0.7316971      0.3341064      0.5984039       0.0884000
N_s        0.7249832      0.3291550      0.5960007      -0.4203000
Zn_s       0.7456589      0.3493500      0.5919571       0.0884000
N_s        0.7481232      0.3544235      0.5852890      -0.4203000
Zn_s       0.7520142      0.3339233      0.6058273       0.0884000
N_s        0.7586441      0.3288422      0.6082916      -0.4203000
Zn_s       0.5617294      0.5327377      0.5914993       0.0884000
N_s        0.5668106      0.5353622      0.5848846      -0.4203000
Zn_s       0.5464249      0.5388870      0.6054001       0.0884000
N_s        0.5414124      0.5455551      0.6079636      -0.4203000
Zn_s       0.5617676      0.5248337      0.6115189       0.0884000
N_s        0.5668793      0.5222397      0.6181183      -0.4203000
Zn_s       0.5462494      0.5188293      0.5975266       0.0884000
N_s        0.5411148      0.5122757      0.5948944      -0.4203000
Zn_s       0.6713028      0.5332031      0.6122284       0.0884000
N_s        0.6661911      0.5356750      0.6188812      -0.4203000
Zn_s       0.6866837      0.5396118      0.5984344       0.0884000
N_s        0.6916962      0.5462723      0.5959930      -0.4203000
Zn_s       0.6714935      0.5257950      0.5919189       0.0884000
N_s        0.6665421      0.5233994      0.5852051      -0.4203000
Zn_s       0.6867218      0.5193253      0.6058731       0.0884000
N_s        0.6917801      0.5126343      0.6083145      -0.4203000
Zn_s       0.3762360      0.5327606      0.6567230       0.0884000
N_s        0.3829041      0.5353394      0.6516953      -0.4203000
Zn_s       0.3621979      0.5388794      0.6720428       0.0884000
N_s        0.3595963      0.5455017      0.6771469      -0.4203000
Zn_s       0.3561859      0.5248795      0.6565399       0.0884000
N_s        0.3496399      0.5222626      0.6514053      -0.4203000
Zn_s       0.3701096      0.5188370      0.6720200       0.0884000
N_s        0.3727112      0.5122757      0.6770554      -0.4203000
Zn_s       0.4951019      0.3938370      0.5470123       0.0884000
N_s        0.4977112      0.3872681      0.5520554      -0.4203000
Zn_s       0.5012436      0.4077454      0.5317078       0.0884000
N_s        0.5078964      0.4103012      0.5266953      -0.4203000
Zn_s       0.4871979      0.4138718      0.5470352       0.0884000
N_s        0.4845963      0.4204941      0.5521240      -0.4203000
Zn_s       0.4811859      0.3998795      0.5315247       0.0884000
N_s        0.4746399      0.3972626      0.5263977      -0.4203000
Zn_s       0.3769455      0.7758713      0.5469055       0.0884000
N_s        0.3836212      0.7734375      0.5519257      -0.4203000
Zn_s       0.3631363      0.7693253      0.5317154       0.0884000
N_s        0.3607483      0.7626190      0.5267715      -0.4203000
Zn_s       0.3566589      0.7832870      0.5469742       0.0884000
N_s        0.3499908      0.7857285      0.5520477      -0.4203000
Zn_s       0.4955292      0.4146423      0.6565399       0.0884000
N_s        0.4979935      0.4212570      0.6514664      -0.4203000
Zn_s       0.5019379      0.4008560      0.6719131       0.0884000
N_s        0.5086288      0.3984222      0.6769409      -0.4203000
Zn_s       0.4881058      0.3943176      0.6567230       0.0884000
N_s        0.4857025      0.3875961      0.6517715      -0.4203000
Zn_s       0.4816589      0.4082870      0.6719666       0.0884000
N_s        0.4749908      0.4107513      0.6770477      -0.4203000
Zn_s       0.4212799      0.3938217      0.4725418       0.0884000
N_s        0.4161453      0.3872757      0.4699249      -0.4203000
Zn_s       0.4367447      0.4077454      0.4664764       0.0884000
N_s        0.4417725      0.4103546      0.4598923      -0.4203000
Zn_s       0.4214630      0.4138794      0.4804001       0.0884000
N_s        0.4164505      0.4205399      0.4829483      -0.4203000
Zn_s       0.4367981      0.3998337      0.4865265       0.0884000
N_s        0.4418793      0.3972473      0.4931107      -0.4203000
Zn_s       0.3762741      0.3494034      0.4724274       0.0884000
N_s        0.3828659      0.3544998      0.4698410      -0.4203000
Zn_s       0.3622665      0.3338852      0.4664078       0.0884000
N_s        0.3596344      0.3287735      0.4598770      -0.4203000
Zn_s       0.3562393      0.3493347      0.4803085       0.0884000
N_s        0.3496475      0.3543777      0.4829102      -0.4203000
Zn_s       0.3701401      0.3340607      0.4864883       0.0884000
N_s        0.3726730      0.3290710      0.4931335      -0.4203000
Zn_s       0.3116531      0.4145813      0.4734573       0.0884000
N_s        0.3166809      0.4212646      0.4710236      -0.4203000
Zn_s       0.2964401      0.4007797      0.4669266       0.0884000
N_s        0.2914581      0.3983841      0.4601898      -0.4203000
Zn_s       0.3117065      0.3942871      0.4808655       0.0884000
N_s        0.3167572      0.3876343      0.4832993      -0.4203000
Zn_s       0.2962723      0.4081573      0.4872284       0.0884000
N_s        0.2911606      0.4106293      0.4938812      -0.4203000
Zn_s       0.3566895      0.4590912      0.4734039       0.0884000
N_s        0.3499603      0.4541168      0.4709930      -0.4203000
Zn_s       0.3706512      0.4743576      0.4669495       0.0884000
N_s        0.3731079      0.4794312      0.4602814      -0.4203000
Zn_s       0.3769913      0.4589157      0.4808121       0.0884000
N_s        0.3836212      0.4538193      0.4832764      -0.4203000
Zn_s       0.3631897      0.4743042      0.4872131       0.0884000
N_s        0.3607407      0.4793167      0.4938736      -0.4203000
Zn_s       0.4951630      0.4590988      0.6114807       0.0884000
N_s        0.4977264      0.4540863      0.6181412      -0.4203000
Zn_s       0.5012894      0.4744415      0.5974426       0.0884000
N_s        0.5078735      0.4795227      0.5948563      -0.4203000
Zn_s       0.4872742      0.4589233      0.5914383       0.0884000
N_s        0.4846344      0.4537811      0.5848846      -0.4203000
Zn_s       0.4812317      0.4743805      0.6053314       0.0884000
N_s        0.4746552      0.4794083      0.6079254      -0.4203000
Zn_s       0.4956589      0.3493500      0.5919571       0.0884000
N_s        0.4981079      0.3544235      0.5852890      -0.4203000
Zn_s       0.5020142      0.3339233      0.6058273       0.0884000
N_s        0.5086365      0.3288422      0.6082916      -0.4203000
Zn_s       0.4881973      0.3492966      0.6122208       0.0884000
N_s        0.4857407      0.3543015      0.6188736      -0.4203000
Zn_s       0.4816895      0.3341064      0.5984116       0.0884000
N_s        0.4749680      0.3291550      0.5960007      -0.4203000
Zn_s       0.3117142      0.5327377      0.5914993       0.0884000
N_s        0.3167953      0.5353622      0.5848846      -0.4203000
Zn_s       0.2964020      0.5388870      0.6054001       0.0884000
N_s        0.2913895      0.5455551      0.6079636      -0.4203000
Zn_s       0.3117599      0.5248337      0.6115112       0.0884000
N_s        0.3168716      0.5222397      0.6181183      -0.4203000
Zn_s       0.2962265      0.5188293      0.5975266       0.0884000
N_s        0.2910843      0.5122681      0.5948944      -0.4203000
Zn_s       0.4212799      0.5332031      0.6122360       0.0884000
N_s        0.4161758      0.5356750      0.6188736      -0.4203000
Zn_s       0.4366608      0.5396118      0.5984344       0.0884000
N_s        0.4416809      0.5462723      0.5959930      -0.4203000
Zn_s       0.4214630      0.5257950      0.5919189       0.0884000
N_s        0.4165115      0.5233994      0.5852051      -0.4203000
Zn_s       0.4366913      0.5193253      0.6058655       0.0884000
N_s        0.4417648      0.5126343      0.6083145      -0.4203000
Zn_s       0.6201019      0.7688599      0.4220047       0.0884000
N_s        0.6227112      0.7622910      0.4270401      -0.4203000
Zn_s       0.6262360      0.7827911      0.4067078       0.0884000
N_s        0.6329041      0.7853699      0.4016800      -0.4203000
Zn_s       0.7372131      0.6638870      0.2970200       0.0884000
N_s        0.7346268      0.6705093      0.3021164      -0.4203000
Zn_s       0.7312012      0.6498947      0.2815094       0.0884000
N_s        0.7246704      0.6472855      0.2763901      -0.4203000
Zn_s       0.7451248      0.6438522      0.2969894       0.0884000
N_s        0.7477264      0.6372910      0.3020248      -0.4203000
Zn_s       0.7512589      0.6577530      0.2816925       0.0884000
N_s        0.7579117      0.6603012      0.2766876      -0.4203000
Zn_s       0.6066589      0.5332642      0.2969437       0.0884000
N_s        0.5999985      0.5356979      0.3020172      -0.4203000
Zn_s       0.6205292      0.5396423      0.2815170       0.0884000
N_s        0.6229935      0.5462723      0.2764435      -0.4203000
Zn_s       0.6269379      0.5258560      0.2968826       0.0884000
N_s        0.6336288      0.5234222      0.3019104      -0.4203000
Zn_s       0.6131363      0.5193100      0.2816849       0.0884000
N_s        0.6107483      0.5126038      0.2767410      -0.4203000
Zn_s       0.7381287      0.6443329      0.4067078       0.0884000
N_s        0.7357254      0.6376038      0.4017487      -0.4203000
Zn_s       0.7316742      0.6582947      0.4219589       0.0884000
N_s        0.7250061      0.6607513      0.4270325      -0.4203000
Zn_s       0.7455444      0.6646576      0.4065323       0.0884000
N_s        0.7480087      0.6712723      0.4014587      -0.4203000
Zn_s       0.7519531      0.6508636      0.4218979       0.0884000
N_s        0.7586441      0.6484222      0.4269257      -0.4203000
Zn_s       0.6714783      0.6638870      0.2303772       0.0884000
N_s        0.6664658      0.6705551      0.2329330      -0.4203000
Zn_s       0.6868210      0.6498413      0.2365112       0.0884000
N_s        0.6918945      0.6472549      0.2430878      -0.4203000
Zn_s       0.6712952      0.6438293      0.2225266       0.0884000
N_s        0.6661682      0.6372910      0.2199097      -0.4203000
Zn_s       0.6062393      0.5993576      0.2303085       0.0884000
N_s        0.5996628      0.6043930      0.2328949      -0.4203000
Zn_s       0.6201401      0.5840683      0.2364883       0.0884000
N_s        0.6226730      0.5790939      0.2431183      -0.4203000
Zn_s       0.6262741      0.5994110      0.2224197       0.0884000
N_s        0.6328812      0.6045151      0.2198257      -0.4203000
Zn_s       0.5617218      0.6442871      0.2308578       0.0884000
N_s        0.5667572      0.6376495      0.2332840      -0.4203000
Zn_s       0.5462875      0.6581573      0.2372208       0.0884000
N_s        0.5411758      0.6606293      0.2438660      -0.4203000
Zn_s       0.6269989      0.7089233      0.2307892       0.0884000
N_s        0.6336365      0.7038193      0.2332611      -0.4203000
Zn_s       0.6132050      0.7243195      0.2371979       0.0884000
N_s        0.6107559      0.7293320      0.2438583      -0.4203000
Zn_s       0.7372971      0.7089233      0.3414154       0.0884000
N_s        0.7346649      0.7037964      0.3348770      -0.4203000
Zn_s       0.7312469      0.7243881      0.3553162       0.0884000
N_s        0.7246628      0.7294159      0.3579102      -0.4203000
Zn_s       0.7451706      0.7091064      0.3614731       0.0884000
N_s        0.7477341      0.7040939      0.3681412      -0.4203000
Zn_s       0.7512970      0.7244492      0.3474274       0.0884000
N_s        0.7578812      0.7295303      0.3448410      -0.4203000
Zn_s       0.7382126      0.5993118      0.3622131       0.0884000
N_s        0.7357635      0.6043243      0.3688736      -0.4203000
Zn_s       0.7316971      0.5841217      0.3483963       0.0884000
N_s        0.7249832      0.5791702      0.3460007      -0.4203000
Zn_s       0.7456665      0.5993729      0.3419495       0.0884000
N_s        0.7481232      0.6044464      0.3352814      -0.4203000
Zn_s       0.7520142      0.5839462      0.3558121       0.0884000
N_s        0.7586441      0.5788574      0.3582764      -0.4203000
Zn_s       0.5462418      0.7688446      0.3475189       0.0884000
N_s        0.5411148      0.7623062      0.3448792      -0.4203000
Zn_s       0.5617294      0.7827530      0.3414917       0.0884000
N_s        0.5668106      0.7853775      0.3348694      -0.4203000
Zn_s       0.6714935      0.7758102      0.3419189       0.0884000
N_s        0.6665421      0.7734070      0.3351974      -0.4203000
Zn_s       0.6867218      0.7693405      0.3558655       0.0884000
N_s        0.6917801      0.7626648      0.3582993      -0.4203000
Zn_s       0.6713028      0.7832260      0.3622284       0.0884000
N_s        0.6661911      0.7857056      0.3688660      -0.4203000
Zn_s       0.3561859      0.7749100      0.4065247       0.0884000
N_s        0.3496399      0.7722931      0.4013901      -0.4203000
Zn_s       0.3701019      0.7688599      0.4220047       0.0884000
N_s        0.3727112      0.7622910      0.4270401      -0.4203000
Zn_s       0.3762360      0.7827911      0.4067078       0.0884000
N_s        0.3829041      0.7853699      0.4016800      -0.4203000
Zn_s       0.4951096      0.6438522      0.2969894       0.0884000
N_s        0.4977112      0.6372910      0.3020248      -0.4203000
Zn_s       0.5012436      0.6577530      0.2816925       0.0884000
N_s        0.5078964      0.6603012      0.2766800      -0.4203000
Zn_s       0.4871979      0.6638870      0.2970200       0.0884000
N_s        0.4845963      0.6705093      0.3021164      -0.4203000
Zn_s       0.4811859      0.6498947      0.2815094       0.0884000
N_s        0.4746399      0.6472778      0.2763901      -0.4203000
Zn_s       0.3769379      0.5258560      0.2968826       0.0884000
N_s        0.3836288      0.5234222      0.3019104      -0.4203000
Zn_s       0.3631363      0.5193100      0.2816849       0.0884000
N_s        0.3607483      0.5126038      0.2767410      -0.4203000
Zn_s       0.3566589      0.5332642      0.2969437       0.0884000
N_s        0.3499908      0.5356979      0.3020172      -0.4203000
Zn_s       0.3705292      0.5396423      0.2815170       0.0884000
N_s        0.3729935      0.5462723      0.2764435      -0.4203000
Zn_s       0.4955292      0.6646576      0.4065323       0.0884000
N_s        0.4979935      0.6712723      0.4014587      -0.4203000
Zn_s       0.5019379      0.6508636      0.4218979       0.0884000
N_s        0.5086288      0.6484222      0.4269257      -0.4203000
Zn_s       0.4881058      0.6443329      0.4067078       0.0884000
N_s        0.4857025      0.6376038      0.4017487      -0.4203000
Zn_s       0.4816589      0.6582947      0.4219589       0.0884000
N_s        0.4749908      0.6607513      0.4270325      -0.4203000
Zn_s       0.4214630      0.6638870      0.2303772       0.0884000
N_s        0.4164429      0.6705551      0.2329330      -0.4203000
Zn_s       0.4368057      0.6498337      0.2365112       0.0884000
N_s        0.4418793      0.6472549      0.2430878      -0.4203000
Zn_s       0.4212799      0.6438293      0.2225266       0.0884000
N_s        0.4161453      0.6372833      0.2199097      -0.4203000
Zn_s       0.3562393      0.5993576      0.2303009       0.0884000
N_s        0.3496475      0.6043930      0.2328949      -0.4203000
Zn_s       0.3701401      0.5840683      0.2364883       0.0884000
N_s        0.3726730      0.5790939      0.2431183      -0.4203000
Zn_s       0.3762741      0.5994110      0.2224197       0.0884000
N_s        0.3828659      0.6045074      0.2198257      -0.4203000
Zn_s       0.3117065      0.6442871      0.2308502       0.0884000
N_s        0.3167572      0.6376419      0.2332840      -0.4203000
Zn_s       0.2962723      0.6581573      0.2372208       0.0884000
N_s        0.2911606      0.6606293      0.2438660      -0.4203000
Zn_s       0.3116531      0.6645813      0.2234497       0.0884000
N_s        0.3166809      0.6712646      0.2210083      -0.4203000
Zn_s       0.3769913      0.7089233      0.2307892       0.0884000
N_s        0.3836212      0.7038193      0.2332611      -0.4203000
Zn_s       0.3631897      0.7243195      0.2371979       0.0884000
N_s        0.3607407      0.7293320      0.2438583      -0.4203000
Zn_s       0.3566895      0.7091064      0.2233887       0.0884000
N_s        0.3499603      0.7041321      0.2209854      -0.4203000
Zn_s       0.4951630      0.7091064      0.3614731       0.0884000
N_s        0.4977264      0.7040939      0.3681412      -0.4203000
Zn_s       0.5012817      0.7244415      0.3474274       0.0884000
N_s        0.5078735      0.7295380      0.3448410      -0.4203000
Zn_s       0.4872742      0.7089310      0.3414154       0.0884000
N_s        0.4846344      0.7037964      0.3348770      -0.4203000
Zn_s       0.4812317      0.7243881      0.3553162       0.0884000
N_s        0.4746475      0.7294159      0.3579102      -0.4203000
Zn_s       0.4956589      0.5993729      0.3419495       0.0884000
N_s        0.4981079      0.6044464      0.3352890      -0.4203000
Zn_s       0.5020142      0.5839386      0.3558121       0.0884000
N_s        0.5086365      0.5788651      0.3582764      -0.4203000
Zn_s       0.4881973      0.5993118      0.3622131       0.0884000
N_s        0.4857407      0.6043243      0.3688736      -0.4203000
Zn_s       0.4816895      0.5841217      0.3483963       0.0884000
N_s        0.4749680      0.5791702      0.3460007      -0.4203000
Zn_s       0.3117676      0.7748566      0.3615112       0.0884000
N_s        0.3168716      0.7722702      0.3681030      -0.4203000
Zn_s       0.2962265      0.7688522      0.3475189       0.0884000
N_s        0.2910919      0.7623062      0.3448792      -0.4203000
Zn_s       0.3117142      0.7827530      0.3414917       0.0884000
N_s        0.3167953      0.7853775      0.3348694      -0.4203000
Zn_s       0.4214630      0.7758102      0.3419189       0.0884000
N_s        0.4165115      0.7734146      0.3351974      -0.4203000
Zn_s       0.4366989      0.7693405      0.3558655       0.0884000
N_s        0.4417648      0.7626648      0.3582993      -0.4203000
Zn_s       0.4212723      0.7832260      0.3622284       0.0884000
N_s        0.4161758      0.7857056      0.3688660      -0.4203000
Zn_s       0.6262360      0.5327606      0.4067078       0.0884000
N_s        0.6329041      0.5353394      0.4016800      -0.4203000
Zn_s       0.6122055      0.5388794      0.4220276       0.0884000
N_s        0.6096115      0.5455017      0.4271317      -0.4203000
Zn_s       0.6061859      0.5248795      0.4065170       0.0884000
N_s        0.5996552      0.5222702      0.4013901      -0.4203000
Zn_s       0.6201096      0.5188370      0.4220047       0.0884000
N_s        0.6227112      0.5122757      0.4270401      -0.4203000
Zn_s       0.7372131      0.4138718      0.2970200       0.0884000
N_s        0.7346268      0.4204941      0.3021164      -0.4203000
Zn_s       0.7312012      0.3998795      0.2815094       0.0884000
N_s        0.7246704      0.3972702      0.2763901      -0.4203000
Zn_s       0.7451248      0.3938370      0.2969894       0.0884000
N_s        0.7477264      0.3872757      0.3020248      -0.4203000
Zn_s       0.7512589      0.4077454      0.2816925       0.0884000
N_s        0.7579117      0.4103012      0.2766800      -0.4203000
Zn_s       0.6066589      0.2832489      0.2969437       0.0884000
N_s        0.5999985      0.2856827      0.3020172      -0.4203000
Zn_s       0.6205292      0.2896271      0.2815170       0.0884000
N_s        0.6229935      0.2962570      0.2764435      -0.4203000
Zn_s       0.6269379      0.2758408      0.2968826       0.0884000
N_s        0.6336288      0.2734070      0.3019104      -0.4203000
Zn_s       0.7381287      0.3943176      0.4067078       0.0884000
N_s        0.7357254      0.3876038      0.4017563      -0.4203000
Zn_s       0.7316818      0.4082870      0.4219589       0.0884000
N_s        0.7250061      0.4107513      0.4270325      -0.4203000
Zn_s       0.7455444      0.4146423      0.4065323       0.0884000
N_s        0.7480087      0.4212570      0.4014587      -0.4203000
Zn_s       0.6714783      0.4138870      0.2303848       0.0884000
N_s        0.6664658      0.4205399      0.2329330      -0.4203000
Zn_s       0.6868210      0.3998337      0.2365112       0.0884000
N_s        0.6918945      0.3972473      0.2430878      -0.4203000
Zn_s       0.6713028      0.3938217      0.2225266       0.0884000
N_s        0.6661682      0.3872757      0.2199097      -0.4203000
Zn_s       0.6062393      0.3493423      0.2303085       0.0884000
N_s        0.5996628      0.3543777      0.2328949      -0.4203000
Zn_s       0.6201401      0.3340530      0.2364807       0.0884000
N_s        0.6226730      0.3290787      0.2431183      -0.4203000
Zn_s       0.6262741      0.3493958      0.2224197       0.0884000
N_s        0.6328812      0.3545074      0.2198257      -0.4203000
Zn_s       0.5617142      0.3942871      0.2308502       0.0884000
N_s        0.5667572      0.3876343      0.2332840      -0.4203000
Zn_s       0.5462875      0.4081573      0.2372208       0.0884000
N_s        0.5411758      0.4106293      0.2438660      -0.4203000
Zn_s       0.5616684      0.4145813      0.2234421       0.0884000
N_s        0.5666809      0.4212646      0.2210159      -0.4203000
Zn_s       0.6270065      0.4589157      0.2307968       0.0884000
N_s        0.6336365      0.4538193      0.2332611      -0.4203000
Zn_s       0.6132050      0.4743042      0.2371979       0.0884000
N_s        0.6107559      0.4793167      0.2438583      -0.4203000
Zn_s       0.6066971      0.4590912      0.2233887       0.0884000
N_s        0.5999603      0.4541168      0.2209854      -0.4203000
Zn_s       0.7372971      0.4589233      0.3414230       0.0884000
N_s        0.7346649      0.4537888      0.3348694      -0.4203000
Zn_s       0.7312469      0.4743805      0.3553162       0.0884000
N_s        0.7246628      0.4794083      0.3579102      -0.4203000
Zn_s       0.7451706      0.4591064      0.3614731       0.0884000
N_s        0.7477341      0.4540863      0.3681412      -0.4203000
Zn_s       0.7512970      0.4744415      0.3474197       0.0884000
N_s        0.7578735      0.4795227      0.3448410      -0.4203000
Zn_s       0.7382126      0.3492966      0.3622131       0.0884000
N_s        0.7357635      0.3543091      0.3688736      -0.4203000
Zn_s       0.7316971      0.3341064      0.3483963       0.0884000
N_s        0.7249832      0.3291550      0.3460007      -0.4203000
Zn_s       0.7456665      0.3493500      0.3419495       0.0884000
N_s        0.7481155      0.3544159      0.3352890      -0.4203000
Zn_s       0.7520142      0.3339233      0.3558121       0.0884000
N_s        0.7586441      0.3288422      0.3582764      -0.4203000
Zn_s       0.5617294      0.5327377      0.3414917       0.0884000
N_s        0.5668106      0.5353622      0.3348770      -0.4203000
Zn_s       0.5464249      0.5388870      0.3553925       0.0884000
N_s        0.5414124      0.5455551      0.3579483      -0.4203000
Zn_s       0.5617752      0.5248337      0.3615112       0.0884000
N_s        0.5668716      0.5222397      0.3681030      -0.4203000
Zn_s       0.5462494      0.5188293      0.3475189       0.0884000
N_s        0.5411148      0.5122681      0.3448792      -0.4203000
Zn_s       0.6713028      0.5332031      0.3622284       0.0884000
N_s        0.6661911      0.5356750      0.3688660      -0.4203000
Zn_s       0.6866837      0.5396118      0.3484344       0.0884000
N_s        0.6916962      0.5462723      0.3459854      -0.4203000
Zn_s       0.6714935      0.5257950      0.3419189       0.0884000
N_s        0.6665421      0.5233994      0.3351974      -0.4203000
Zn_s       0.6867218      0.5193176      0.3558655       0.0884000
N_s        0.6917801      0.5126343      0.3582993      -0.4203000
Zn_s       0.6262360      0.2827530      0.6567154       0.0884000
N_s        0.6329041      0.2853241      0.6516953      -0.4203000
Zn_s       0.6121979      0.2888718      0.6720505       0.0884000
N_s        0.6096115      0.2954865      0.6771393      -0.4203000
Zn_s       0.6061859      0.2748795      0.6565323       0.0884000
N_s        0.5996552      0.2722702      0.6514053      -0.4203000
Zn_s       0.6201096      0.2688293      0.6720200       0.0884000
N_s        0.6227112      0.2622681      0.6770554      -0.4203000
Zn_s       0.5617294      0.2827225      0.5914993       0.0884000
N_s        0.5668106      0.2853470      0.5848846      -0.4203000
Zn_s       0.5464249      0.2888718      0.6054001       0.0884000
N_s        0.5414124      0.2955246      0.6079636      -0.4203000
Zn_s       0.5617752      0.2748260      0.6115189       0.0884000
N_s        0.5668716      0.2722397      0.6181183      -0.4203000
Zn_s       0.5462418      0.2688141      0.5975189       0.0884000
N_s        0.5411148      0.2622681      0.5948944      -0.4203000
Zn_s       0.6713028      0.2831879      0.6122284       0.0884000
N_s        0.6661911      0.2856598      0.6188812      -0.4203000
Zn_s       0.6866837      0.2895966      0.5984344       0.0884000
N_s        0.6916962      0.2962570      0.5959930      -0.4203000
Zn_s       0.6714935      0.2757797      0.5919189       0.0884000
N_s        0.6665421      0.2733841      0.5852051      -0.4203000
Zn_s       0.6867218      0.2693100      0.6058731       0.0884000
N_s        0.6917801      0.2626343      0.6083145      -0.4203000
Zn_s       0.3762360      0.2827530      0.6567154       0.0884000
N_s        0.3829041      0.2853241      0.6516953      -0.4203000
Zn_s       0.3621979      0.2888718      0.6720505       0.0884000
N_s        0.3595963      0.2954865      0.6771393      -0.4203000
Zn_s       0.3561859      0.2748795      0.6565399       0.0884000
N_s        0.3496399      0.2722626      0.6514053      -0.4203000
Zn_s       0.3701096      0.2688293      0.6720200       0.0884000
N_s        0.3727112      0.2622681      0.6770554      -0.4203000
Zn_s       0.3117142      0.2827225      0.5914993       0.0884000
N_s        0.3167953      0.2853470      0.5848846      -0.4203000
Zn_s       0.2964020      0.2888641      0.6054001       0.0884000
N_s        0.2913895      0.2955246      0.6079636      -0.4203000
Zn_s       0.3117599      0.2748260      0.6115189       0.0884000
N_s        0.3168716      0.2722397      0.6181183      -0.4203000
Zn_s       0.2962265      0.2688141      0.5975266       0.0884000
N_s        0.2910843      0.2622681      0.5948944      -0.4203000
Zn_s       0.4212799      0.2831879      0.6122360       0.0884000
N_s        0.4161758      0.2856598      0.6188736      -0.4203000
Zn_s       0.4366608      0.2895966      0.5984344       0.0884000
N_s        0.4416809      0.2962570      0.5959930      -0.4203000
Zn_s       0.4214630      0.2757797      0.5919189       0.0884000
N_s        0.4165115      0.2733841      0.5852051      -0.4203000
Zn_s       0.4366989      0.2693100      0.6058731       0.0884000
N_s        0.4417648      0.2626343      0.6083145      -0.4203000
Zn_s       0.6066589      0.2832489      0.5469742       0.0884000
N_s        0.5999985      0.2856827      0.5520477      -0.4203000
Zn_s       0.6205292      0.2896271      0.5315475       0.0884000
N_s        0.6229935      0.2962570      0.5264664      -0.4203000
Zn_s       0.6269379      0.2758408      0.5469055       0.0884000
N_s        0.6336212      0.2734070      0.5519257      -0.4203000
Zn_s       0.6131287      0.2693024      0.5317154       0.0884000
N_s        0.6107483      0.2625961      0.5267715      -0.4203000
Zn_s       0.3566589      0.2832489      0.5469742       0.0884000
N_s        0.3499908      0.2856827      0.5520477      -0.4203000
Zn_s       0.3705292      0.2896271      0.5315475       0.0884000
N_s        0.3729935      0.2962570      0.5264664      -0.4203000
Zn_s       0.3769455      0.2758408      0.5469055       0.0884000
N_s        0.3836212      0.2734070      0.5519257      -0.4203000
Zn_s       0.3631287      0.2693024      0.5317154       0.0884000
N_s        0.3607483      0.2625961      0.5267715      -0.4203000
Zn_s       0.6262360      0.2827530      0.4067001       0.0884000
N_s        0.6329041      0.2853241      0.4016876      -0.4203000
Zn_s       0.6121979      0.2888718      0.4220352       0.0884000
N_s        0.6096115      0.2954865      0.4271240      -0.4203000
Zn_s       0.6061859      0.2748795      0.4065170       0.0884000
N_s        0.5996552      0.2722702      0.4013901      -0.4203000
Zn_s       0.6201096      0.2688293      0.4220047       0.0884000
N_s        0.6227112      0.2622681      0.4270401      -0.4203000
Zn_s       0.5617294      0.2827225      0.3414917       0.0884000
N_s        0.5668106      0.2853470      0.3348770      -0.4203000
Zn_s       0.5464172      0.2888718      0.3554001       0.0884000
N_s        0.5414124      0.2955246      0.3579483      -0.4203000
Zn_s       0.5617752      0.2748260      0.3615189       0.0884000
N_s        0.5668716      0.2722397      0.3681030      -0.4203000
Zn_s       0.5462418      0.2688141      0.3475189       0.0884000
N_s        0.5411148      0.2622681      0.3448792      -0.4203000
Zn_s       0.6713028      0.2831879      0.3622284       0.0884000
N_s        0.6661911      0.2856598      0.3688660      -0.4203000
Zn_s       0.6866837      0.2895966      0.3484344       0.0884000
N_s        0.6916962      0.2962570      0.3459854      -0.4203000
Zn_s       0.6714935      0.2757797      0.3419189       0.0884000
N_s        0.6665421      0.2733841      0.3351974      -0.4203000
Zn_s       0.6867218      0.2693100      0.3558655       0.0884000
N_s        0.6917801      0.2626343      0.3582993      -0.4203000
Zn_s       0.3762360      0.2827530      0.4067001       0.0884000
N_s        0.3829041      0.2853241      0.4016876      -0.4203000
Zn_s       0.3621979      0.2888718      0.4220352       0.0884000
N_s        0.3595963      0.2954865      0.4271240      -0.4203000
Zn_s       0.3561859      0.2748795      0.4065247       0.0884000
N_s        0.3496399      0.2722626      0.4013901      -0.4203000
Zn_s       0.3701096      0.2688293      0.4220047       0.0884000
N_s        0.3727112      0.2622681      0.4270401      -0.4203000
Zn_s       0.3117142      0.2827225      0.3414917       0.0884000
N_s        0.3167953      0.2853470      0.3348770      -0.4203000
Zn_s       0.2964020      0.2888641      0.3553925       0.0884000
N_s        0.2913895      0.2955246      0.3579483      -0.4203000
Zn_s       0.3117676      0.2748260      0.3615112       0.0884000
N_s        0.3168716      0.2722397      0.3681030      -0.4203000
Zn_s       0.2962265      0.2688217      0.3475189       0.0884000
N_s        0.2910843      0.2622681      0.3448792      -0.4203000
Zn_s       0.4212723      0.2831879      0.3622284       0.0884000
N_s        0.4161758      0.2856598      0.3688660      -0.4203000
Zn_s       0.4366608      0.2895966      0.3484344       0.0884000
N_s        0.4416809      0.2962570      0.3459854      -0.4203000
Zn_s       0.4214630      0.2757797      0.3419189       0.0884000
N_s        0.4165115      0.2733841      0.3351974      -0.4203000
Zn_s       0.4366989      0.2693100      0.3558655       0.0884000
N_s        0.4417648      0.2626343      0.3582993      -0.4203000
Zn_s       0.2450943      0.6438522      0.5470123       0.0884000
N_s        0.2476959      0.6372833      0.5520554      -0.4203000
Zn_s       0.2512283      0.6577530      0.5317078       0.0884000
N_s        0.2578888      0.6603012      0.5266953      -0.4203000
Zn_s       0.2371826      0.6638947      0.5470352       0.0884000
N_s        0.2345963      0.6705017      0.5521240      -0.4203000
Zn_s       0.2455139      0.6646500      0.6565399       0.0884000
N_s        0.2479782      0.6712723      0.6514664      -0.4203000
Zn_s       0.2519226      0.6508636      0.6719131       0.0884000
N_s        0.2586136      0.6484222      0.6769409      -0.4203000
Zn_s       0.2380981      0.6443329      0.6567230       0.0884000
N_s        0.2356949      0.6376038      0.6517639      -0.4203000
Zn_s       0.2451401      0.7091064      0.6114883       0.0884000
N_s        0.2476959      0.7041016      0.6181412      -0.4203000
Zn_s       0.2512665      0.7244492      0.5974426       0.0884000
N_s        0.2578506      0.7295303      0.5948563      -0.4203000
Zn_s       0.2372665      0.7089233      0.5914307       0.0884000
N_s        0.2346344      0.7037964      0.5848923      -0.4203000
Zn_s       0.2456284      0.5993652      0.5919647       0.0884000
N_s        0.2480927      0.6044464      0.5852890      -0.4203000
Zn_s       0.2519836      0.5839462      0.6058273       0.0884000
N_s        0.2586136      0.5788574      0.6082916      -0.4203000
Zn_s       0.2381744      0.5993118      0.6122284       0.0884000
N_s        0.2357407      0.6043167      0.6188736      -0.4203000
Zn_s       0.2450943      0.3938370      0.5470123       0.0884000
N_s        0.2476959      0.3872681      0.5520554      -0.4203000
Zn_s       0.2512283      0.4077454      0.5317078       0.0884000
N_s        0.2578888      0.4103012      0.5266953      -0.4203000
Zn_s       0.2371826      0.4138794      0.5470352       0.0884000
N_s        0.2345963      0.4204865      0.5521240      -0.4203000
Zn_s       0.2455139      0.4146423      0.6565399       0.0884000
N_s        0.2479782      0.4212570      0.6514664      -0.4203000
Zn_s       0.2519226      0.4008560      0.6719131       0.0884000
N_s        0.2586136      0.3984222      0.6769409      -0.4203000
Zn_s       0.2380981      0.3943176      0.6567230       0.0884000
N_s        0.2356949      0.3876038      0.6517715      -0.4203000
Zn_s       0.2451401      0.4590988      0.6114807       0.0884000
N_s        0.2476959      0.4540863      0.6181412      -0.4203000
Zn_s       0.2512741      0.4744415      0.5974350       0.0884000
N_s        0.2578506      0.4795227      0.5948563      -0.4203000
Zn_s       0.2372665      0.4589233      0.5914383       0.0884000
N_s        0.2346344      0.4537888      0.5848846      -0.4203000
Zn_s       0.2456360      0.3493500      0.5919571       0.0884000
N_s        0.2480927      0.3544235      0.5852890      -0.4203000
Zn_s       0.2519836      0.3339233      0.6058273       0.0884000
N_s        0.2586136      0.3288422      0.6082916      -0.4203000
Zn_s       0.2381744      0.3493042      0.6122284       0.0884000
N_s        0.2357407      0.3543015      0.6188736      -0.4203000
Zn_s       0.2450943      0.6438522      0.2969894       0.0884000
N_s        0.2476959      0.6372833      0.3020248      -0.4203000
Zn_s       0.2512283      0.6577530      0.2816925       0.0884000
N_s        0.2578888      0.6603012      0.2766800      -0.4203000
Zn_s       0.2371902      0.6638870      0.2970200       0.0884000
N_s        0.2345963      0.6705093      0.3021164      -0.4203000
Zn_s       0.2455139      0.6646576      0.4065323       0.0884000
N_s        0.2479782      0.6712723      0.4014587      -0.4203000
Zn_s       0.2519226      0.6508636      0.4218979       0.0884000
N_s        0.2586136      0.6484222      0.4269257      -0.4203000
Zn_s       0.2380981      0.6443329      0.4067078       0.0884000
N_s        0.2356949      0.6376038      0.4017487      -0.4203000
Zn_s       0.2451401      0.7091064      0.3614731       0.0884000
N_s        0.2476959      0.7040939      0.3681412      -0.4203000
Zn_s       0.2512665      0.7244492      0.3474274       0.0884000
N_s        0.2578506      0.7295303      0.3448410      -0.4203000
Zn_s       0.2372665      0.7089233      0.3414154       0.0884000
N_s        0.2346344      0.7037964      0.3348770      -0.4203000
Zn_s       0.2456360      0.5993729      0.3419495       0.0884000
N_s        0.2480927      0.6044464      0.3352814      -0.4203000
Zn_s       0.2519836      0.5839462      0.3558121       0.0884000
N_s        0.2586136      0.5788574      0.3582764      -0.4203000
Zn_s       0.2381821      0.5993118      0.3622131       0.0884000
N_s        0.2357330      0.6043243      0.3688660      -0.4203000
Zn_s       0.2450943      0.3938370      0.2969894       0.0884000
N_s        0.2476959      0.3872757      0.3020248      -0.4203000
Zn_s       0.2512283      0.4077454      0.2816925       0.0884000
N_s        0.2578888      0.4103012      0.2766800      -0.4203000
Zn_s       0.2371902      0.4138718      0.2970200       0.0884000
N_s        0.2345963      0.4204941      0.3021164      -0.4203000
Zn_s       0.2455139      0.4146423      0.4065323       0.0884000
N_s        0.2479782      0.4212570      0.4014587      -0.4203000
Zn_s       0.2519226      0.4008560      0.4218979       0.0884000
N_s        0.2586136      0.3984222      0.4269257      -0.4203000
Zn_s       0.2451401      0.4590988      0.3614731       0.0884000
N_s        0.2476959      0.4540863      0.3681412      -0.4203000
Zn_s       0.2512665      0.4744415      0.3474197       0.0884000
N_s        0.2578430      0.4795227      0.3448410      -0.4203000
Zn_s       0.2372665      0.4589233      0.3414230       0.0884000
N_s        0.2346344      0.4537888      0.3348694      -0.4203000
Zn_s       0.2456360      0.3493500      0.3419495       0.0884000
N_s        0.2480927      0.3544159      0.3352890      -0.4203000
Zn_s       0.2519836      0.3339233      0.3558121       0.0884000
N_s        0.2586136      0.3288422      0.3582764      -0.4203000
Zn_s       0.3769379      0.7758713      0.2968826       0.0884000
N_s        0.3836288      0.7734375      0.3019104      -0.4203000
Zn_s       0.3631363      0.7693253      0.2816849       0.0884000
N_s        0.3607483      0.7626190      0.2767410      -0.4203000
Zn_s       0.3566589      0.7832870      0.2969437       0.0884000
N_s        0.3499908      0.7857285      0.3020172      -0.4203000
Zn_s       0.6269379      0.7758713      0.2968826       0.0884000
N_s        0.6336288      0.7734375      0.3019104      -0.4203000
Zn_s       0.6131363      0.7693253      0.2816849       0.0884000
N_s        0.6107483      0.7626190      0.2767410      -0.4203000
Zn_s       0.6066589      0.7832870      0.2969437       0.0884000
N_s        0.5999985      0.7857285      0.3020172      -0.4203000
Zn_s       0.4212799      0.3938217      0.7225571       0.0884000
N_s        0.4161453      0.3872757      0.7199326      -0.4203000
Zn_s       0.4367371      0.4077454      0.7164917       0.0884000
N_s        0.4417725      0.4103546      0.7098999      -0.4203000
Zn_s       0.4214630      0.4138794      0.7304077       0.0884000
N_s        0.4164505      0.4205399      0.7329636      -0.4203000
Zn_s       0.4368057      0.3998337      0.7365417       0.0884000
N_s        0.4418793      0.3972473      0.7431107      -0.4203000
Zn_s       0.3762741      0.3494034      0.7224579       0.0884000
N_s        0.3828659      0.3544998      0.7198715      -0.4203000
Zn_s       0.3622665      0.3338852      0.7164383       0.0884000
N_s        0.3596420      0.3287735      0.7099075      -0.4203000
Zn_s       0.3562393      0.3493423      0.7303314       0.0884000
N_s        0.3496475      0.3543777      0.7329254      -0.4203000
Zn_s       0.3701401      0.3340530      0.7365112       0.0884000
N_s        0.3726807      0.3290710      0.7431564      -0.4203000
Zn_s       0.3116531      0.4145813      0.7234726       0.0884000
N_s        0.3166809      0.4212646      0.7210388      -0.4203000
Zn_s       0.2964401      0.4007721      0.7169418       0.0884000
N_s        0.2914658      0.3983841      0.7102127      -0.4203000
Zn_s       0.3117065      0.3942871      0.7308807       0.0884000
N_s        0.3167572      0.3876343      0.7333145      -0.4203000
Zn_s       0.2962723      0.4081573      0.7372437       0.0884000
N_s        0.2911606      0.4106293      0.7438889      -0.4203000
Zn_s       0.3566895      0.4590912      0.7234192       0.0884000
N_s        0.3499603      0.4541168      0.7210083      -0.4203000
Zn_s       0.3706512      0.4743576      0.7169647       0.0884000
N_s        0.3731079      0.4794312      0.7102966      -0.4203000
Zn_s       0.3769913      0.4589157      0.7308273       0.0884000
N_s        0.3836212      0.4538193      0.7332916      -0.4203000
Zn_s       0.3631897      0.4743042      0.7372208       0.0884000
N_s        0.3607407      0.4793167      0.7438889      -0.4203000
Zn_s       0.6712952      0.6438293      0.7225494       0.0884000
N_s        0.6661682      0.6372833      0.7199326      -0.4203000
Zn_s       0.6867523      0.6577454      0.7164917       0.0884000
N_s        0.6917877      0.6603546      0.7098999      -0.4203000
Zn_s       0.6714783      0.6638870      0.7304077       0.0884000
N_s        0.6664658      0.6705551      0.7329636      -0.4203000
Zn_s       0.6868210      0.6498337      0.7365417       0.0884000
N_s        0.6918945      0.6472549      0.7431107      -0.4203000
Zn_s       0.6262817      0.5994110      0.7224579       0.0884000
N_s        0.6328735      0.6045074      0.7198715      -0.4203000
Zn_s       0.6122742      0.5838928      0.7164383       0.0884000
N_s        0.6096497      0.5787888      0.7099075      -0.4203000
Zn_s       0.6062393      0.5993576      0.7303391       0.0884000
N_s        0.5996628      0.6043930      0.7329254      -0.4203000
Zn_s       0.6201401      0.5840683      0.7365112       0.0884000
N_s        0.6226807      0.5790863      0.7431564      -0.4203000
Zn_s       0.5616684      0.6645813      0.7234726       0.0884000
N_s        0.5666809      0.6712646      0.7210388      -0.4203000
Zn_s       0.5464630      0.6507721      0.7169418       0.0884000
N_s        0.5414886      0.6483841      0.7102127      -0.4203000
Zn_s       0.5617218      0.6442871      0.7308807       0.0884000
N_s        0.5667572      0.6376495      0.7333145      -0.4203000
Zn_s       0.5462875      0.6581573      0.7372437       0.0884000
N_s        0.5411758      0.6606293      0.7438889      -0.4203000
Zn_s       0.6066971      0.7091064      0.7234192       0.0884000
N_s        0.5999603      0.7041321      0.7210083      -0.4203000
Zn_s       0.6206589      0.7243729      0.7169647       0.0884000
N_s        0.6231079      0.7294464      0.7103043      -0.4203000
Zn_s       0.6269989      0.7089233      0.7308197       0.0884000
N_s        0.6336365      0.7038193      0.7332916      -0.4203000
Zn_s       0.6132050      0.7243195      0.7372208       0.0884000
N_s        0.6107559      0.7293320      0.7438889      -0.4203000
Zn_s       0.4212799      0.6438293      0.7225571       0.0884000
N_s        0.4161453      0.6372833      0.7199326      -0.4203000
Zn_s       0.4367371      0.6577454      0.7164917       0.0884000
N_s        0.4417725      0.6603546      0.7098999      -0.4203000
Zn_s       0.4214630      0.6638870      0.7304077       0.0884000
N_s        0.4164429      0.6705551      0.7329636      -0.4203000
Zn_s       0.4368057      0.6498337      0.7365417       0.0884000
N_s        0.4418793      0.6472549      0.7431107      -0.4203000
Zn_s       0.3762741      0.5994110      0.7224579       0.0884000
N_s        0.3828659      0.6045074      0.7198715      -0.4203000
Zn_s       0.3622665      0.5838928      0.7164383       0.0884000
N_s        0.3596420      0.5787888      0.7099075      -0.4203000
Zn_s       0.3562393      0.5993576      0.7303314       0.0884000
N_s        0.3496475      0.6043930      0.7329254      -0.4203000
Zn_s       0.3701401      0.5840683      0.7365112       0.0884000
N_s        0.3726807      0.5790863      0.7431564      -0.4203000
Zn_s       0.3116531      0.6645813      0.7234726       0.0884000
N_s        0.3166809      0.6712646      0.7210388      -0.4203000
Zn_s       0.2964401      0.6507721      0.7169418       0.0884000
N_s        0.2914658      0.6483841      0.7102127      -0.4203000
Zn_s       0.3117065      0.6442871      0.7308807       0.0884000
N_s        0.3167572      0.6376419      0.7333145      -0.4203000
Zn_s       0.3566895      0.7091064      0.7234192       0.0884000
N_s        0.3499603      0.7041321      0.7210083      -0.4203000
Zn_s       0.3706512      0.7243729      0.7169647       0.0884000
N_s        0.3731079      0.7294464      0.7102966      -0.4203000
Zn_s       0.3769913      0.7089233      0.7308197       0.0884000
N_s        0.3836212      0.7038193      0.7332916      -0.4203000
Zn_s       0.3631897      0.7243195      0.7372208       0.0884000
N_s        0.3607407      0.7293320      0.7438889      -0.4203000
Zn_s       0.6713028      0.3938217      0.7225571       0.0884000
N_s        0.6661682      0.3872757      0.7199326      -0.4203000
Zn_s       0.6867523      0.4077454      0.7164917       0.0884000
N_s        0.6917877      0.4103546      0.7098999      -0.4203000
Zn_s       0.6714783      0.4138870      0.7304153       0.0884000
N_s        0.6664734      0.4205399      0.7329636      -0.4203000
Zn_s       0.6868210      0.3998337      0.7365417       0.0884000
N_s        0.6918945      0.3972473      0.7431107      -0.4203000
Zn_s       0.6262817      0.3493958      0.7224579       0.0884000
N_s        0.6328735      0.3544998      0.7198715      -0.4203000
Zn_s       0.6122742      0.3338776      0.7164383       0.0884000
N_s        0.6096497      0.3287735      0.7099075      -0.4203000
Zn_s       0.6062393      0.3493423      0.7303391       0.0884000
N_s        0.5996628      0.3543777      0.7329254      -0.4203000
Zn_s       0.6201401      0.3340530      0.7365112       0.0884000
N_s        0.6226807      0.3290710      0.7431564      -0.4203000
Zn_s       0.5616684      0.4145813      0.7234726       0.0884000
N_s        0.5666809      0.4212646      0.7210388      -0.4203000
Zn_s       0.5464630      0.4007721      0.7169418       0.0884000
N_s        0.5414886      0.3983841      0.7102127      -0.4203000
Zn_s       0.5617142      0.3942871      0.7308807       0.0884000
N_s        0.5667572      0.3876343      0.7333145      -0.4203000
Zn_s       0.5462875      0.4081573      0.7372437       0.0884000
N_s        0.5411758      0.4106293      0.7438889      -0.4203000
Zn_s       0.6066971      0.4590912      0.7234192       0.0884000
N_s        0.5999603      0.4541168      0.7210083      -0.4203000
Zn_s       0.6206589      0.4743576      0.7169647       0.0884000
N_s        0.6231079      0.4794312      0.7103043      -0.4203000
Zn_s       0.6270065      0.4589157      0.7308197       0.0884000
N_s        0.6336365      0.4538193      0.7332916      -0.4203000
Zn_s       0.6132050      0.4743042      0.7372284       0.0884000
N_s        0.6107559      0.4793167      0.7438889      -0.4203000
Zn_s       0.4368515      0.4075699      0.2164764       0.0884000
Xe        0.4541321      0.4160233      0.1942062      -0.3500000
Kr        0.4627762      0.4202499      0.1830750       0.3500000
Zn_s       0.3624725      0.3339005      0.2163162       0.0884000
Xe        0.3540268      0.3166580      0.1940155      -0.3500000
Kr        0.3498077      0.3080368      0.1828613       0.3500000
Zn_s       0.2964020      0.4006042      0.2170105       0.0884000
Xe        0.2794724      0.3921280      0.1944733      -0.3500000
Kr        0.2710037      0.3878937      0.1832123       0.3500000
Zn_s       0.3707733      0.4742584      0.2169037       0.0884000
Xe        0.3793335      0.4911423      0.1943741      -0.3500000
Kr        0.3836136      0.4995804      0.1831055       0.3500000
Zn_s       0.6120148      0.7888718      0.6719971       0.0884000
Xe        0.6028671      0.8110580      0.6890335      -0.3500000
Kr        0.5982895      0.8221512      0.6975479       0.3500000
Zn_s       0.5463104      0.7887573      0.6055603       0.0884000
Xe        0.5291519      0.8109131      0.6145401      -0.3500000
Kr        0.5205765      0.8219910      0.6190262       0.3500000
Zn_s       0.6867523      0.7896271      0.5985641       0.0884000
Xe        0.7038727      0.8121872      0.5905762      -0.3500000
Kr        0.7124329      0.8234711      0.5865784       0.3500000
Zn_s       0.3620148      0.7888718      0.6719971       0.0884000
Xe        0.3528824      0.8110580      0.6890335      -0.3500000
Kr        0.3483200      0.8221512      0.6975555       0.3500000
Zn_s       0.2962952      0.7887573      0.6055603       0.0884000
Xe        0.2791367      0.8109131      0.6145401      -0.3500000
Kr        0.2705612      0.8219910      0.6190262       0.3500000
Zn_s       0.4367142      0.7896347      0.5985641       0.0884000
Xe        0.4538193      0.8122025      0.5905685      -0.3500000
Kr        0.4623642      0.8234940      0.5865631       0.3500000
Zn_s       0.6203384      0.7897186      0.5315399       0.0884000
Xe        0.6282501      0.8122635      0.5143585      -0.3500000
Kr        0.6322098      0.8235397      0.5057755       0.3500000
Zn_s       0.3703461      0.7897186      0.5315399       0.0884000
Xe        0.3782730      0.8122635      0.5143661      -0.3500000
Kr        0.3822327      0.8235321      0.5057755       0.3500000
Zn_s       0.6147232      0.7886124      0.4226074       0.0884000
Zn_s       0.6081390      0.7732391      0.4059753       0.0884000
Zn_s       0.6868591      0.6575546      0.2164688       0.0884000
Xe        0.7041321      0.6659698      0.1941757      -0.3500000
Kr        0.7127686      0.6701813      0.1830292       0.3500000
Zn_s       0.6124649      0.5839157      0.2163162       0.0884000
Xe        0.6039886      0.5666809      0.1940231      -0.3500000
Kr        0.5997543      0.5580597      0.1828690       0.3500000
Zn_s       0.5457993      0.6489868      0.2190247       0.0884000
Zn_s       0.5623016      0.6641006      0.2260895       0.0884000
Zn_s       0.6071854      0.7084351      0.2258377       0.0884000
Zn_s       0.6224670      0.7249756      0.2189941       0.0884000
Zn_s       0.5622864      0.7730179      0.3594284       0.0884000
Zn_s       0.5458450      0.7885208      0.3529434       0.0884000
Zn_s       0.6867523      0.7896271      0.3485870       0.0884000
Xe        0.7038803      0.8122025      0.3406296      -0.3500000
Kr        0.7124481      0.8234863      0.3366547       0.3500000
Zn_s       0.3620148      0.7888718      0.4219818       0.0884000
Xe        0.3528824      0.8110580      0.4390182      -0.3500000
Kr        0.3483200      0.8221512      0.4475403       0.3500000
Zn_s       0.4368591      0.6575546      0.2164764       0.0884000
Xe        0.4541473      0.6659622      0.1941986      -0.3500000
Kr        0.4627914      0.6701736      0.1830521       0.3500000
Zn_s       0.3624725      0.5839157      0.2163162       0.0884000
Xe        0.3540268      0.5666733      0.1940155      -0.3500000
Kr        0.3498077      0.5580521      0.1828613       0.3500000
Zn_s       0.2964020      0.6505966      0.2170105       0.0884000
Xe        0.2794724      0.6421127      0.1944809      -0.3500000
Kr        0.2710114      0.6378708      0.1832199       0.3500000
Zn_s       0.3707733      0.7242737      0.2169113       0.0884000
Xe        0.3793259      0.7411652      0.1943817      -0.3500000
Kr        0.3836060      0.7496185      0.1831207       0.3500000
Zn_s       0.2963028      0.7887497      0.3555756       0.0884000
Xe        0.2791519      0.8108978      0.3645935      -0.3500000
Kr        0.2705765      0.8219757      0.3691025       0.3500000
Zn_s       0.4367142      0.7896347      0.3485794       0.0884000
Xe        0.4538269      0.8122177      0.3406296      -0.3500000
Kr        0.4623795      0.8235092      0.3366470       0.3500000
Zn_s       0.6129608      0.2694321      0.2815933       0.0884000
Xe        0.6044922      0.2469482      0.2646027      -0.3500000
Kr        0.6002579      0.2357025      0.2561035       0.3500000
Zn_s       0.7519608      0.4009399      0.4219284       0.0884000
Xe        0.7745514      0.3928909      0.4389801      -0.3500000
Kr        0.7858505      0.3888702      0.4475098       0.3500000
Zn_s       0.6868591      0.4075699      0.2164764       0.0884000
Xe        0.7041168      0.4160309      0.1941910      -0.3500000
Kr        0.7127533      0.4202652      0.1830521       0.3500000
Zn_s       0.6124649      0.3339005      0.2163162       0.0884000
Xe        0.6039886      0.3166656      0.1940231      -0.3500000
Kr        0.5997543      0.3080444      0.1828690       0.3500000
Zn_s       0.5464249      0.4005966      0.2170029       0.0884000
Xe        0.5295105      0.3921204      0.1944580      -0.3500000
Kr        0.5210571      0.3878860      0.1831818       0.3500000
Zn_s       0.6207962      0.4742508      0.2169037       0.0884000
Xe        0.6293640      0.4911346      0.1943817      -0.3500000
Kr        0.6336517      0.4995804      0.1831131       0.3500000
N_s        0.7247391      0.2295303      0.6078415      -0.4203000
Kr        0.7503662      0.1966019      0.6222458       0.3500000
Xe        0.7589111      0.1856308      0.6270523      -0.3500000
N_s        0.5077820      0.2296753      0.5949478      -0.4203000
Kr        0.5100098      0.1886597      0.6111298       0.3500000
Xe        0.5107498      0.1749878      0.6165237      -0.3500000
N_s        0.6108093      0.2294998      0.4937515      -0.4203000
Kr        0.6271133      0.1885452      0.4960709       0.3500000
Xe        0.6325455      0.1748886      0.4968414      -0.3500000
N_s        0.6230087      0.2296295      0.7104187      -0.4203000
Kr        0.6374512      0.1967392      0.7360764       0.3500000
Xe        0.6422653      0.1857758      0.7446289      -0.3500000
N_s        0.4747238      0.2295380      0.6078415      -0.4203000
Kr        0.4724579      0.1891479      0.6255112       0.3500000
Xe        0.4717026      0.1756821      0.6314011      -0.3500000
N_s        0.2577515      0.2296753      0.5949478      -0.4203000
Kr        0.2318115      0.1964493      0.6080551       0.3500000
Xe        0.2231674      0.1853714      0.6124268      -0.3500000
N_s        0.3607941      0.2294998      0.4937515      -0.4203000
Kr        0.3431625      0.1890945      0.4960403       0.3500000
Xe        0.3372879      0.1756287      0.4967957      -0.3500000
N_s        0.3730164      0.2296295      0.7104187      -0.4203000
Kr        0.3598709      0.1964035      0.7363358       0.3500000
Xe        0.3554916      0.1853256      0.7449722      -0.3500000
N_s        0.7247391      0.2295303      0.3578262      -0.4203000
Kr        0.7506104      0.1962891      0.3446350       0.3500000
Xe        0.7592392      0.1852112      0.3402328      -0.3500000
N_s        0.5077820      0.2296753      0.3449326      -0.4203000
Kr        0.5099716      0.1893234      0.3271713       0.3500000
Xe        0.5107040      0.1758728      0.3212433      -0.3500000
N_s        0.6230164      0.2296371      0.4604034      -0.4203000
Kr        0.6407318      0.1892700      0.4581985       0.3500000
Xe        0.6466446      0.1758118      0.4574661      -0.3500000
N_s        0.4747238      0.2295380      0.3578339      -0.4203000
Kr        0.4724274      0.1885605      0.3415680       0.3500000
Xe        0.4716644      0.1749039      0.3361435      -0.3500000
N_s        0.2577515      0.2296753      0.3449326      -0.4203000
Kr        0.2320938      0.1968002      0.3304596       0.3500000
Xe        0.2235336      0.1858444      0.3256378      -0.3500000
N_s        0.3607941      0.2294998      0.2437363      -0.4203000
Kr        0.3464203      0.1965561      0.2181091       0.3500000
Xe        0.3416290      0.1855774      0.2095718      -0.3500000
N_s        0.3730240      0.2296371      0.4604111      -0.4203000
Kr        0.3568039      0.1886368      0.4581680       0.3500000
Xe        0.3513947      0.1749725      0.4574203      -0.3500000
N_s        0.7910004      0.2623367      0.5949554      -0.4203000
Kr        0.8226166      0.2341690      0.6074295       0.3500000
Xe        0.8331528      0.2247772      0.6115875      -0.3500000
N_s        0.7577820      0.2296753      0.5949478      -0.4203000
Kr        0.7859116      0.1980286      0.6074295       0.3500000
Xe        0.7952881      0.1874847      0.6115952      -0.3500000
N_s        0.7910004      0.2623367      0.3449402      -0.4203000
Kr        0.8223114      0.2344360      0.3311615       0.3500000
Xe        0.8327484      0.2251358      0.3265610      -0.3500000
N_s        0.7577820      0.2296753      0.3449326      -0.4203000
Kr        0.7856445      0.1983337      0.3311386       0.3500000
Xe        0.7949295      0.1878891      0.3265381      -0.3500000
Zn_s       0.2310638      0.6500015      0.5316086       0.0884000
Xe        0.2087326      0.6414185      0.5144730      -0.3500000
Kr        0.1975632      0.6371231      0.5059052       0.3500000
Zn_s       0.2315903      0.6584167      0.6718369       0.0884000
Xe        0.2089996      0.6669540      0.6886520      -0.3500000
Kr        0.1977005      0.6712265      0.6970520       0.3500000
Zn_s       0.2312317      0.7244873      0.6051712       0.0884000
Xe        0.2089539      0.7417679      0.6136093      -0.3500000
Kr        0.1978226      0.7504044      0.6178360       0.3500000
Zn_s       0.2317734      0.5840225      0.5982971       0.0884000
Xe        0.2092667      0.5670319      0.5898972      -0.3500000
Kr        0.1980057      0.5585403      0.5856934       0.3500000
Zn_s       0.2310638      0.3999863      0.5316086       0.0884000
Xe        0.2087326      0.3913803      0.5144806      -0.3500000
Kr        0.1975708      0.3870850      0.5059128       0.3500000
Zn_s       0.2315903      0.4083939      0.6718369       0.0884000
Xe        0.2089844      0.4169006      0.6886597      -0.3500000
Kr        0.1976852      0.4211578      0.6970673       0.3500000
Zn_s       0.2312469      0.4745026      0.6051636       0.0884000
Xe        0.2089844      0.4918137      0.6136017      -0.3500000
Kr        0.1978607      0.5004654      0.6178207       0.3500000
Zn_s       0.2317734      0.3340225      0.5982895       0.0884000
Xe        0.2092438      0.3170471      0.5898895      -0.3500000
Kr        0.1979828      0.3085632      0.5856857       0.3500000
Zn_s       0.2310562      0.6500015      0.2815933       0.0884000
Xe        0.2087173      0.6414108      0.2644730      -0.3500000
Kr        0.1975479      0.6371155      0.2559128       0.3500000
Zn_s       0.2315903      0.6584167      0.4218216       0.0884000
Xe        0.2089996      0.6669540      0.4386368      -0.3500000
Kr        0.1977005      0.6712265      0.4470367       0.3500000
Zn_s       0.2312317      0.7244949      0.3551483       0.0884000
Xe        0.2089539      0.7417679      0.3635788      -0.3500000
Kr        0.1978149      0.7504120      0.3677902       0.3500000
Zn_s       0.2317810      0.5840302      0.3482666       0.0884000
Xe        0.2092743      0.5670395      0.3398438      -0.3500000
Kr        0.1980209      0.5585480      0.3356247       0.3500000
Zn_s       0.2310638      0.3999863      0.2816010       0.0884000
Xe        0.2087250      0.3913803      0.2644806      -0.3500000
Kr        0.1975555      0.3870773      0.2559128       0.3500000
Zn_s       0.2405624      0.3948059      0.4060059       0.0884000
Zn_s       0.2336731      0.4100647      0.4225693       0.0884000
Zn_s       0.2312393      0.4745026      0.3551407       0.0884000
Xe        0.2089844      0.4918137      0.3635635      -0.3500000
Kr        0.1978531      0.5004654      0.3677750       0.3500000
Zn_s       0.2337952      0.3334198      0.3466034       0.0884000
Zn_s       0.2408142      0.3499222      0.3617554       0.0884000
N_s        0.7910004      0.5123367      0.3449402      -0.4203000
Kr        0.8313522      0.5100632      0.3271790       0.3500000
Xe        0.8448029      0.5093079      0.3212585      -0.3500000
N_s        0.7911835      0.2954025      0.3578491      -0.4203000
Kr        0.8244019      0.2694855      0.3446655       0.3500000
Xe        0.8354721      0.2608490      0.3402710      -0.3500000
N_s        0.7910156      0.4105301      0.2437744      -0.4203000
Kr        0.8242722      0.3973541      0.2179031       0.3500000
Xe        0.8353577      0.3929672      0.2092743      -0.3500000
N_s        0.7910004      0.7623672      0.5949554      -0.4203000
Kr        0.8242569      0.7882614      0.6080780       0.3500000
Xe        0.8353424      0.7968903      0.6124573      -0.3500000
N_s        0.7911911      0.5454330      0.6078720      -0.4203000
Kr        0.8315811      0.5476303      0.6255417       0.3500000
Xe        0.8450470      0.5483551      0.6314316      -0.3500000
N_s        0.7912140      0.6485367      0.7103653      -0.4203000
Kr        0.8244247      0.6617737      0.7362518       0.3500000
Xe        0.8355026      0.6661835      0.7448807      -0.3500000
N_s        0.7910156      0.6605225      0.4937897      -0.4203000
Kr        0.8313828      0.6782303      0.4960785       0.3500000
Xe        0.8448410      0.6841278      0.4968414      -0.3500000
N_s        0.7910004      0.5123367      0.5949554      -0.4203000
Kr        0.8320084      0.5100327      0.6111374       0.3500000
Xe        0.8456802      0.5092621      0.6165314      -0.3500000
N_s        0.7911911      0.2954025      0.6078720      -0.4203000
Kr        0.8240891      0.2697296      0.6222687       0.3500000
Xe        0.8350601      0.2611771      0.6270599      -0.3500000
N_s        0.7912064      0.3985443      0.7103577      -0.4203000
Kr        0.8241348      0.3841934      0.7360229       0.3500000
Xe        0.8351135      0.3794098      0.7445831      -0.3500000
N_s        0.7910156      0.4105301      0.4937820      -0.4203000
Kr        0.8320007      0.3942947      0.4961090       0.3500000
Xe        0.8456650      0.3888779      0.4968872      -0.3500000
N_s        0.7910004      0.7623672      0.3449402      -0.4203000
Kr        0.8238983      0.7879868      0.3304596       0.3500000
Xe        0.8348694      0.7965240      0.3256302      -0.3500000
N_s        0.7911911      0.5454330      0.3578491      -0.4203000
Kr        0.8321686      0.5476608      0.3415833       0.3500000
Xe        0.8458252      0.5484009      0.3361588      -0.3500000
N_s        0.7912140      0.6485443      0.4603348      -0.4203000
Kr        0.8321686      0.6648560      0.4580841       0.3500000
Xe        0.8458252      0.6702957      0.4573364      -0.3500000
N_s        0.7910156      0.6605225      0.2437744      -0.4203000
Kr        0.8239365      0.6749573      0.2181549       0.3500000
Xe        0.8349152      0.6797714      0.2096176      -0.3500000
Zn_s       0.3703384      0.7897186      0.2815094       0.0884000
Xe        0.3782654      0.8122559      0.2643204      -0.3500000
Kr        0.3822327      0.8235168      0.2557297       0.3500000
Zn_s       0.6203384      0.7897186      0.2815094       0.0884000
Xe        0.6282501      0.8122559      0.2643204      -0.3500000
Kr        0.6322021      0.8235245      0.2557220       0.3500000
N_s        0.6108780      0.2627106      0.7765579      -0.4203000
Kr        0.6234665      0.2346039      0.8081818       0.3500000
Xe        0.6276627      0.2252274      0.8187256      -0.3500000
N_s        0.6108093      0.2294998      0.7437668      -0.4203000
Kr        0.6233826      0.1979065      0.7719116       0.3500000
Xe        0.6275787      0.1873779      0.7812958      -0.3500000
N_s        0.3608856      0.2627106      0.7765579      -0.4203000
Kr        0.3472137      0.2348251      0.8079300       0.3500000
Xe        0.3426514      0.2255249      0.8183823      -0.3500000
N_s        0.3607941      0.2294998      0.7437668      -0.4203000
Kr        0.3471222      0.1981659      0.7716827       0.3500000
Xe        0.3425598      0.1877213      0.7809906      -0.3500000
Zn_s       0.2963181      0.6579819      0.7373428       0.0884000
Xe        0.2791977      0.6659088      0.7599335      -0.3500000
Kr        0.2706451      0.6698685      0.7712250       0.3500000
N_s        0.4746933      0.3973236      0.7763138      -0.4203000
Kr        0.4724274      0.3795700      0.8166580       0.3500000
Xe        0.4716721      0.3736496      0.8301086      -0.3500000
N_s        0.2577744      0.4102020      0.7764969      -0.4203000
Kr        0.2318649      0.3970184      0.8097153       0.3500000
Xe        0.2232285      0.3926239      0.8207932      -0.3500000
N_s        0.3729172      0.2961655      0.7763138      -0.4203000
Kr        0.3597412      0.2702942      0.8095703       0.3500000
Xe        0.3553543      0.2616730      0.8206558      -0.3500000
N_s        0.3608856      0.5127258      0.7765579      -0.4203000
Kr        0.3432693      0.5105057      0.8169708       0.3500000
Xe        0.3373947      0.5097656      0.8304443      -0.3500000
N_s        0.7247238      0.6473389      0.7763138      -0.4203000
Kr        0.7506180      0.6604614      0.8095703       0.3500000
Xe        0.7592468      0.6648331      0.8206558      -0.3500000
N_s        0.5077896      0.6601944      0.7764969      -0.4203000
Kr        0.5099792      0.6778564      0.8168945       0.3500000
Xe        0.5107117      0.6837463      0.8303604      -0.3500000
N_s        0.6229095      0.5461807      0.7763062      -0.4203000
Kr        0.6406174      0.5484772      0.8166809       0.3500000
Xe        0.6465149      0.5492401      0.8301392      -0.3500000
N_s        0.6108780      0.7627411      0.7765579      -0.4203000
Kr        0.6240997      0.7886200      0.8097839       0.3500000
Xe        0.6285095      0.7972488      0.8208542      -0.3500000
N_s        0.4746933      0.6473389      0.7763138      -0.4203000
Kr        0.4723892      0.6635208      0.8173218       0.3500000
Xe        0.4716187      0.6689148      0.8309860      -0.3500000
N_s        0.3729172      0.5461807      0.7763138      -0.4203000
Kr        0.3566818      0.5485077      0.8172989       0.3500000
Xe        0.3512726      0.5492859      0.8309555      -0.3500000
N_s        0.3608856      0.7627411      0.7765579      -0.4203000
Kr        0.3465347      0.7883987      0.8094864       0.3500000
Xe        0.3417511      0.7969513      0.8204651      -0.3500000
N_s        0.7247238      0.3973236      0.7763138      -0.4203000
Kr        0.7503433      0.3828430      0.8092117       0.3500000
Xe        0.7588806      0.3780136      0.8201828      -0.3500000
N_s        0.5077896      0.4102020      0.7764969      -0.4203000
Kr        0.5100098      0.3939362      0.8174744       0.3500000
Xe        0.5107498      0.3885193      0.8311310      -0.3500000
N_s        0.6229095      0.2961655      0.7763138      -0.4203000
Kr        0.6373520      0.2705536      0.8092346       0.3500000
Xe        0.6421585      0.2620163      0.8202133      -0.3500000
N_s        0.6108780      0.5127258      0.7765579      -0.4203000
Kr        0.6271820      0.5104752      0.8175201       0.3500000
Xe        0.6326218      0.5097275      0.8311691      -0.3500000
N_s        0.7578049      0.4102020      0.7764969      -0.4203000
Kr        0.7859116      0.3976440      0.8081360       0.3500000
Xe        0.7952805      0.3934555      0.8186798      -0.3500000
N_s        0.7910156      0.4105301      0.7438049      -0.4203000
Kr        0.8226166      0.3980103      0.7719727       0.3500000
Xe        0.8331451      0.3938370      0.7813644      -0.3500000
N_s        0.7578049      0.6601944      0.7764969      -0.4203000
Kr        0.7856750      0.6739044      0.8078613       0.3500000
Xe        0.7949600      0.6784744      0.8183212      -0.3500000
N_s        0.7910156      0.6605225      0.7438049      -0.4203000
Kr        0.8223267      0.6742554      0.7717209       0.3500000
Xe        0.8327637      0.6788330      0.7810287      -0.3500000
