data_add_dummy_or_solvent_atoms
_audit_creation_method    iGOR
_audit_author_name 'Sponge Bob'
_cell_length_a    67.9599991
_cell_length_b    67.9599991
_cell_length_c    67.9599991
_cell_angle_alpha    90.0000000
_cell_angle_beta    90.0000000
_cell_angle_gamma    90.0000000
_cell_volume313877.4375000
_symmetry_space_group_name_hall 'p 1'
_symmetry_space_group_name_h-m 'p 1'
_symmetry_int_tables_number 1
_symmetry_equiv_pos_as_xyz 'x,y,z'
loop_
_atom_site_label
_atom_site_fract_x
_atom_site_fract_y
_atom_site_fract_z
  Zn 0.36612701 0.52885437 0.41431427
  Zn 0.49112701 0.40385437 0.28929901
  Zn 0.36677551 0.27954865 0.28924561
  Zn 0.49177551 0.40456390 0.41426086
  Zn 0.42907715 0.40377045 0.22650146
  Zn 0.36627197 0.34165955 0.22635651
  Zn 0.30401611 0.40441132 0.22714996
  Zn 0.36692047 0.46665955 0.22704315
  Zn 0.49127197 0.46671295 0.35135651
  Zn 0.49193573 0.34165955 0.35205841
  Zn 0.30401611 0.52877045 0.35151672
  Zn 0.42901611 0.52945709 0.35216522
  Zn 0.61612701 0.77888489 0.66432953
  Zn 0.74114227 0.65386963 0.53931427
  Zn 0.61677551 0.52956390 0.53927612
  Zn 0.74179077 0.65457916 0.66427612
  Zn 0.67909241 0.65377045 0.47651672
  Zn 0.61627197 0.59167480 0.47635651
  Zn 0.55403137 0.65441132 0.47716522
  Zn 0.61693573 0.71667480 0.47705841
  Zn 0.74128723 0.71671295 0.60137177
  Zn 0.74193573 0.59167480 0.60207367
  Zn 0.55403137 0.77877808 0.60151672
  Zn 0.67904663 0.77947235 0.60216522
  Zn 0.36612701 0.77888489 0.66432953
  Zn 0.49112701 0.65386963 0.53931427
  Zn 0.36677551 0.52956390 0.53927612
  Zn 0.49177551 0.65457916 0.66427612
  Zn 0.42907715 0.65377045 0.47651672
  Zn 0.36627197 0.59167480 0.47635651
  Zn 0.30401611 0.65441132 0.47716522
  Zn 0.36692047 0.71667480 0.47705841
  Zn 0.49127197 0.71671295 0.60137177
  Zn 0.49193573 0.59167480 0.60207367
  Zn 0.30401611 0.77877808 0.60151672
  Zn 0.42901611 0.77947235 0.60216522
  Zn 0.61612701 0.52885437 0.66432953
  Zn 0.74114227 0.40385437 0.53931427
  Zn 0.61677551 0.77957916 0.53927612
  Zn 0.74179077 0.40456390 0.66427612
  Zn 0.67909241 0.40377045 0.47651672
  Zn 0.61627197 0.34165955 0.47635651
  Zn 0.55403137 0.40441132 0.47716522
  Zn 0.61693573 0.46665955 0.47705841
  Zn 0.74128723 0.46671295 0.60137177
  Zn 0.74193573 0.34165955 0.60207367
  Zn 0.55403137 0.52877045 0.60151672
  Zn 0.67904663 0.52945709 0.60216522
  Zn 0.36612701 0.52885437 0.66432953
  Zn 0.49112701 0.40385437 0.53931427
  Zn 0.36677551 0.77957916 0.53927612
  Zn 0.49177551 0.40456390 0.66427612
  Zn 0.42907715 0.40377045 0.47651672
  Zn 0.36627197 0.34165955 0.47635651
  Zn 0.30401611 0.40441132 0.47716522
  Zn 0.36692047 0.46665955 0.47705841
  Zn 0.49127197 0.46671295 0.60137177
  Zn 0.49193573 0.34165955 0.60207367
  Zn 0.30401611 0.52877045 0.60151672
  Zn 0.42901611 0.52945709 0.60216522
  Zn 0.61612701 0.77888489 0.41431427
  Zn 0.74114227 0.65386963 0.28929901
  Zn 0.61677551 0.52956390 0.28924561
  Zn 0.74179077 0.65457916 0.41426086
  Zn 0.67909241 0.65377045 0.22650146
  Zn 0.61627197 0.59167480 0.22635651
  Zn 0.55403137 0.65441132 0.22714996
  Zn 0.61693573 0.71667480 0.22704315
  Zn 0.74128723 0.71671295 0.35135651
  Zn 0.74193573 0.59167480 0.35205841
  Zn 0.55403137 0.77877808 0.35151672
  Zn 0.67904663 0.77947235 0.35216522
  Zn 0.36612701 0.77888489 0.41431427
  Zn 0.49112701 0.65386963 0.28929901
  Zn 0.36677551 0.52956390 0.28924561
  Zn 0.49177551 0.65457916 0.41426086
  Zn 0.42907715 0.65377045 0.22650146
  Zn 0.36627197 0.59167480 0.22635651
  Zn 0.30401611 0.65441132 0.22714996
  Zn 0.36692047 0.71667480 0.22704315
  Zn 0.49127197 0.71671295 0.35135651
  Zn 0.49193573 0.59167480 0.35205841
  Zn 0.30401611 0.77877808 0.35151672
  Zn 0.42901611 0.77947235 0.35216522
  Zn 0.61612701 0.52885437 0.41431427
  Zn 0.74114227 0.40385437 0.28929901
  Zn 0.61677551 0.27954865 0.28924561
  Zn 0.74179077 0.40456390 0.41426086
  Zn 0.67909241 0.40377045 0.22650146
  Zn 0.61627197 0.34165955 0.22635651
  Zn 0.55403137 0.40441132 0.22714996
  Zn 0.61693573 0.46665955 0.22704315
  Zn 0.74128723 0.46671295 0.35135651
  Zn 0.74193573 0.34165955 0.35205841
  Zn 0.55403137 0.52877045 0.35151672
  Zn 0.67904663 0.52945709 0.35216522
   H 0.37351227 0.50646210 0.37801361
   H 0.39751434 0.49626160 0.38060760
   H 0.39071655 0.50791931 0.35820770
   H 0.47077942 0.39740753 0.32975006
   H 0.45881653 0.37679291 0.31914520
   H 0.46756744 0.37545776 0.34386444
   H 0.37211609 0.29910278 0.33000183
   H 0.39282227 0.31219482 0.32099915
   H 0.39336395 0.30210114 0.34519958
   H 0.35991669 0.38225555 0.45610809
   H 0.33927155 0.37174988 0.44405365
   H 0.33796692 0.39640808 0.45295715
   H 0.37292480 0.42810822 0.45566559
   H 0.39517212 0.43535614 0.44396973
   H 0.39302826 0.41125488 0.45391083
   H 0.37511444 0.37525177 0.25079346
   H 0.39997101 0.37535095 0.25909424
   H 0.38992310 0.39680481 0.24814606
   H 0.35991669 0.43099976 0.24970245
   H 0.33572388 0.43050385 0.25979614
   H 0.34471893 0.40975952 0.24670410
   H 0.26290131 0.42760468 0.34446716
   H 0.27386475 0.43756866 0.32291412
   H 0.26551056 0.41271210 0.32291412
   H 0.34452820 0.50846100 0.34511566
   H 0.33402252 0.49645233 0.32440948
   H 0.35866547 0.50531006 0.32315826
   H 0.46867371 0.43066406 0.35881042
   H 0.45866394 0.43275452 0.38291931
   H 0.47042084 0.41056824 0.37570953
   H 0.33766937 0.30314636 0.36031342
   H 0.33766937 0.31150818 0.38520813
   H 0.35916901 0.30060577 0.37526703
   H 0.48416901 0.42560577 0.25025177
   H 0.46262360 0.43650818 0.26020050
   H 0.46266937 0.42816162 0.23534393
   H 0.24845123 0.38156128 0.25289917
   H 0.27236938 0.37124634 0.25579834
   H 0.26586151 0.38281250 0.23325348
   H 0.34577942 0.52245331 0.45481110
   H 0.33381653 0.50180817 0.44421387
   H 0.34261322 0.50051880 0.46891022
   H 0.48372650 0.38035583 0.44820404
   H 0.45906067 0.37145233 0.44940948
   H 0.46946716 0.38346100 0.47011566
   H 0.48487091 0.50725555 0.33110809
   H 0.46427155 0.49670410 0.31905365
   H 0.46292114 0.52136230 0.32795715
   H 0.24790955 0.30310822 0.33066559
   H 0.27011108 0.31040192 0.31889343
   H 0.26805115 0.28625488 0.32891083
   H 0.25006104 0.50026703 0.37580872
   H 0.27495575 0.50035095 0.38417053
   H 0.26490784 0.52180481 0.37316132
   H 0.48491669 0.30599976 0.37470245
   H 0.46072388 0.30550385 0.38481140
   H 0.46971893 0.28475952 0.37170410
   H 0.38791656 0.30260468 0.46946716
   H 0.39892578 0.31255341 0.44795227
   H 0.39052582 0.28769684 0.44791412
   H 0.38647461 0.50741577 0.23236084
   H 0.39951324 0.49836731 0.25304413
   H 0.38946533 0.52256012 0.25369263
   H 0.34367371 0.30569458 0.23384094
   H 0.33366394 0.30769348 0.25794220
   H 0.34542084 0.28550720 0.25064850
   H 0.26830292 0.42706299 0.47019958
   H 0.26780701 0.43721008 0.44601440
   H 0.24711609 0.42411804 0.45500183
   H 0.62352753 0.75647736 0.62801361
   H 0.64752960 0.74627686 0.63062286
   H 0.64073181 0.75793457 0.60822296
   H 0.72079468 0.64742279 0.57976532
   H 0.70884705 0.62682343 0.56917572
   H 0.71758270 0.62547302 0.59386444
   H 0.62213135 0.54911804 0.58001709
   H 0.64283752 0.56221008 0.57102966
   H 0.64337921 0.55211639 0.59521484
   H 0.51452637 0.64757538 0.62872314
   H 0.52457428 0.62332153 0.62807465
   H 0.51143646 0.63241577 0.60741425
   H 0.60993195 0.63227081 0.70613861
   H 0.58927155 0.62176514 0.69408417
   H 0.58797455 0.64642334 0.70298767
   H 0.62292480 0.67811584 0.70568085
   H 0.64517212 0.68537140 0.69398499
   H 0.64302826 0.66127014 0.70392609
   H 0.62512970 0.62526703 0.50082397
   H 0.64998627 0.62536621 0.50912476
   H 0.63993835 0.64682007 0.49817657
   H 0.60993195 0.68101501 0.49971771
   H 0.58572388 0.68051910 0.50981140
   H 0.59473419 0.65976715 0.49671936
   H 0.51293182 0.67761993 0.59446716
   H 0.52388000 0.68756866 0.57292175
   H 0.51552582 0.66271210 0.57292175
   H 0.59452820 0.75847626 0.59511566
   H 0.58403778 0.74648285 0.57442474
   H 0.60868073 0.75532532 0.57317352
   H 0.71868896 0.68066406 0.60881042
   H 0.70869446 0.68276978 0.63291931
   H 0.72043610 0.66056824 0.62571716
   H 0.58768463 0.55316162 0.61031342
   H 0.58768463 0.56152344 0.63522339
   H 0.60918427 0.55062103 0.62526703
   H 0.73419952 0.67562103 0.50026703
   H 0.71263885 0.68652344 0.51022339
   H 0.71268463 0.67816162 0.48535919
   H 0.49848175 0.63156128 0.50291443
   H 0.52238464 0.62127686 0.50582886
   H 0.51587677 0.63281250 0.48325348
   H 0.59577942 0.77248383 0.70482635
   H 0.58383179 0.75182343 0.69422913
   H 0.59262848 0.75052643 0.71892548
   H 0.73374176 0.63037109 0.69823456
   H 0.70909119 0.62146759 0.69942474
   H 0.71949768 0.63347626 0.72013092
   H 0.73488617 0.75728607 0.58112335
   H 0.71428680 0.74673462 0.56906891
   H 0.71293640 0.77137756 0.57797241
   H 0.49792480 0.55311584 0.58066559
   H 0.52012634 0.56041718 0.56892395
   H 0.51808167 0.53625488 0.57891083
   H 0.50007629 0.75028229 0.62582397
   H 0.52498627 0.75038147 0.63417053
   H 0.51493835 0.77183533 0.62317657
   H 0.73494720 0.55601501 0.62471771
   H 0.71073914 0.55551910 0.63481140
   H 0.71974945 0.53475952 0.62171936
   H 0.63793182 0.55261993 0.71948242
   H 0.64892578 0.56256866 0.69798279
   H 0.64052582 0.53771210 0.69792175
   H 0.63647461 0.75743103 0.48236084
   H 0.64952850 0.74838257 0.50307465
   H 0.63948059 0.77258301 0.50372314
   H 0.59367371 0.55572510 0.48385620
   H 0.58367920 0.55772400 0.50797272
   H 0.59542084 0.53550720 0.50067902
   H 0.51833344 0.67707825 0.72023010
   H 0.51783752 0.68721008 0.69602966
   H 0.49713135 0.67411804 0.70503235
   H 0.37351227 0.75647736 0.62801361
   H 0.39751434 0.74627686 0.63062286
   H 0.39071655 0.75793457 0.60822296
   H 0.47077942 0.64742279 0.57976532
   H 0.45881653 0.62682343 0.56917572
   H 0.46756744 0.62547302 0.59386444
   H 0.37211609 0.54911804 0.58001709
   H 0.39282227 0.56221008 0.57102966
   H 0.39336395 0.55211639 0.59521484
   H 0.26451111 0.64757538 0.62872314
   H 0.27455902 0.62332153 0.62807465
   H 0.26140594 0.63241577 0.60741425
   H 0.35991669 0.63227081 0.70613861
   H 0.33927155 0.62176514 0.69408417
   H 0.33796692 0.64642334 0.70298767
   H 0.37292480 0.67811584 0.70568085
   H 0.39517212 0.68537140 0.69398499
   H 0.39302826 0.66127014 0.70392609
   H 0.37511444 0.62526703 0.50082397
   H 0.39997101 0.62536621 0.50912476
   H 0.38992310 0.64682007 0.49817657
   H 0.35991669 0.68101501 0.49971771
   H 0.33572388 0.68051910 0.50981140
   H 0.34471893 0.65976715 0.49671936
   H 0.26290131 0.67761993 0.59446716
   H 0.27386475 0.68756866 0.57292175
   H 0.26551056 0.66271210 0.57292175
   H 0.34452820 0.75847626 0.59511566
   H 0.33402252 0.74648285 0.57442474
   H 0.35866547 0.75532532 0.57317352
   H 0.46867371 0.68066406 0.60881042
   H 0.45866394 0.68276978 0.63291931
   H 0.47042084 0.66056824 0.62571716
   H 0.33766937 0.55316162 0.61031342
   H 0.33766937 0.56152344 0.63522339
   H 0.35916901 0.55062103 0.62526703
   H 0.48416901 0.67562103 0.50026703
   H 0.46262360 0.68652344 0.51022339
   H 0.46266937 0.67816162 0.48535919
   H 0.24845123 0.63156128 0.50291443
   H 0.27236938 0.62127686 0.50582886
   H 0.26586151 0.63281250 0.48325348
   H 0.34577942 0.77248383 0.70482635
   H 0.33381653 0.75182343 0.69422913
   H 0.34261322 0.75052643 0.71892548
   H 0.48372650 0.63037109 0.69823456
   H 0.45906067 0.62146759 0.69942474
   H 0.46946716 0.63347626 0.72013092
   H 0.48487091 0.75728607 0.58112335
   H 0.46427155 0.74673462 0.56906891
   H 0.46292114 0.77137756 0.57797241
   H 0.24790955 0.55311584 0.58066559
   H 0.27011108 0.56041718 0.56892395
   H 0.26805115 0.53625488 0.57891083
   H 0.25006104 0.75028229 0.62582397
   H 0.27495575 0.75038147 0.63417053
   H 0.26490784 0.77183533 0.62317657
   H 0.48491669 0.55601501 0.62471771
   H 0.46072388 0.55551910 0.63481140
   H 0.46971893 0.53475952 0.62171936
   H 0.38791656 0.55261993 0.71948242
   H 0.39892578 0.56256866 0.69798279
   H 0.39052582 0.53771210 0.69792175
   H 0.38647461 0.75743103 0.48236084
   H 0.39951324 0.74838257 0.50307465
   H 0.38946533 0.77258301 0.50372314
   H 0.34367371 0.55572510 0.48385620
   H 0.33366394 0.55772400 0.50797272
   H 0.34542084 0.53550720 0.50067902
   H 0.26830292 0.67707825 0.72023010
   H 0.26780701 0.68721008 0.69602966
   H 0.24711609 0.67411804 0.70503235
   H 0.62352753 0.50646210 0.62801361
   H 0.64752960 0.49626160 0.63062286
   H 0.64073181 0.50791931 0.60822296
   H 0.72079468 0.39740753 0.57976532
   H 0.70884705 0.37679291 0.56917572
   H 0.71758270 0.37545776 0.59386444
   H 0.62213135 0.29910278 0.58001709
   H 0.64283752 0.31219482 0.57102966
   H 0.64337921 0.30210114 0.59521484
   H 0.51452637 0.39756012 0.62872314
   H 0.52457428 0.37329102 0.62807465
   H 0.51143646 0.38241577 0.60741425
   H 0.60993195 0.38225555 0.70613861
   H 0.58927155 0.37174988 0.69408417
   H 0.58797455 0.39640808 0.70298767
   H 0.62292480 0.42810822 0.70568085
   H 0.64517212 0.43535614 0.69398499
   H 0.64302826 0.41125488 0.70392609
   H 0.62512970 0.37525177 0.50082397
   H 0.64998627 0.37535095 0.50912476
   H 0.63993835 0.39680481 0.49817657
   H 0.60993195 0.43099976 0.49971771
   H 0.58572388 0.43050385 0.50981140
   H 0.59473419 0.40975952 0.49671936
   H 0.51293182 0.42760468 0.59446716
   H 0.52388000 0.43756866 0.57292175
   H 0.51552582 0.41271210 0.57292175
   H 0.59452820 0.50846100 0.59511566
   H 0.58403778 0.49645233 0.57442474
   H 0.60868073 0.50531006 0.57317352
   H 0.71868896 0.43066406 0.60881042
   H 0.70869446 0.43275452 0.63291931
   H 0.72043610 0.41056824 0.62571716
   H 0.58768463 0.30314636 0.61031342
   H 0.58768463 0.31150818 0.63522339
   H 0.60918427 0.30060577 0.62526703
   H 0.73419952 0.42560577 0.50026703
   H 0.71263885 0.43650818 0.51022339
   H 0.71268463 0.42816162 0.48535919
   H 0.49848175 0.38156128 0.50291443
   H 0.52238464 0.37124634 0.50582886
   H 0.51587677 0.38281250 0.48325348
   H 0.59577942 0.52245331 0.70482635
   H 0.58383179 0.50180817 0.69422913
   H 0.59262848 0.50051880 0.71892548
   H 0.73374176 0.38035583 0.69823456
   H 0.70909119 0.37145233 0.69942474
   H 0.71949768 0.38346100 0.72013092
   H 0.73488617 0.50725555 0.58112335
   H 0.71428680 0.49670410 0.56906891
   H 0.71293640 0.52136230 0.57797241
   H 0.49792480 0.30310822 0.58066559
   H 0.52012634 0.31040192 0.56892395
   H 0.51808167 0.28625488 0.57891083
   H 0.50007629 0.50026703 0.62582397
   H 0.52498627 0.50035095 0.63417053
   H 0.51493835 0.52180481 0.62317657
   H 0.73494720 0.30599976 0.62471771
   H 0.71073914 0.30550385 0.63481140
   H 0.71974945 0.28475952 0.62171936
   H 0.63793182 0.30260468 0.71948242
   H 0.64892578 0.31255341 0.69798279
   H 0.64052582 0.28769684 0.69792175
   H 0.63647461 0.50741577 0.48236084
   H 0.64952850 0.49836731 0.50307465
   H 0.63948059 0.52256012 0.50372314
   H 0.59367371 0.30569458 0.48385620
   H 0.58367920 0.30769348 0.50797272
   H 0.59542084 0.28550720 0.50067902
   H 0.51833344 0.42706299 0.72023010
   H 0.51783752 0.43721008 0.69602966
   H 0.49713135 0.42411804 0.70503235
   H 0.37351227 0.50646210 0.62801361
   H 0.39751434 0.49626160 0.63062286
   H 0.39071655 0.50791931 0.60822296
   H 0.47077942 0.39740753 0.57976532
   H 0.45881653 0.37679291 0.56917572
   H 0.46756744 0.37545776 0.59386444
   H 0.37211609 0.29910278 0.58001709
   H 0.39282227 0.31219482 0.57102966
   H 0.39336395 0.30210114 0.59521484
   H 0.26451111 0.39756012 0.62872314
   H 0.27455902 0.37329102 0.62807465
   H 0.26140594 0.38241577 0.60741425
   H 0.35991669 0.38225555 0.70613861
   H 0.33927155 0.37174988 0.69408417
   H 0.33796692 0.39640808 0.70298767
   H 0.37292480 0.42810822 0.70568085
   H 0.39517212 0.43535614 0.69398499
   H 0.39302826 0.41125488 0.70392609
   H 0.37511444 0.37525177 0.50082397
   H 0.39997101 0.37535095 0.50912476
   H 0.38992310 0.39680481 0.49817657
   H 0.35991669 0.43099976 0.49971771
   H 0.33572388 0.43050385 0.50981140
   H 0.34471893 0.40975952 0.49671936
   H 0.26290131 0.42760468 0.59446716
   H 0.27386475 0.43756866 0.57292175
   H 0.26551056 0.41271210 0.57292175
   H 0.34452820 0.50846100 0.59511566
   H 0.33402252 0.49645233 0.57442474
   H 0.35866547 0.50531006 0.57317352
   H 0.46867371 0.43066406 0.60881042
   H 0.45866394 0.43275452 0.63291931
   H 0.47042084 0.41056824 0.62571716
   H 0.33766937 0.30314636 0.61031342
   H 0.33766937 0.31150818 0.63522339
   H 0.35916901 0.30060577 0.62526703
   H 0.48416901 0.42560577 0.50026703
   H 0.46262360 0.43650818 0.51022339
   H 0.46266937 0.42816162 0.48535919
   H 0.24845123 0.38156128 0.50291443
   H 0.27236938 0.37124634 0.50582886
   H 0.26586151 0.38281250 0.48325348
   H 0.34577942 0.52245331 0.70482635
   H 0.33381653 0.50180817 0.69422913
   H 0.34261322 0.50051880 0.71892548
   H 0.48372650 0.38035583 0.69823456
   H 0.45906067 0.37145233 0.69942474
   H 0.46946716 0.38346100 0.72013092
   H 0.48487091 0.50725555 0.58112335
   H 0.46427155 0.49670410 0.56906891
   H 0.46292114 0.52136230 0.57797241
   H 0.24790955 0.30310822 0.58066559
   H 0.27011108 0.31040192 0.56892395
   H 0.26805115 0.28625488 0.57891083
   H 0.25006104 0.50026703 0.62582397
   H 0.27495575 0.50035095 0.63417053
   H 0.26490784 0.52180481 0.62317657
   H 0.48491669 0.30599976 0.62471771
   H 0.46072388 0.30550385 0.63481140
   H 0.46971893 0.28475952 0.62171936
   H 0.38791656 0.30260468 0.71948242
   H 0.39892578 0.31255341 0.69798279
   H 0.39052582 0.28769684 0.69792175
   H 0.38647461 0.50741577 0.48236084
   H 0.39951324 0.49836731 0.50307465
   H 0.38946533 0.52256012 0.50372314
   H 0.34367371 0.30569458 0.48385620
   H 0.33366394 0.30769348 0.50797272
   H 0.34542084 0.28550720 0.50067902
   H 0.26830292 0.42706299 0.72023010
   H 0.26780701 0.43721008 0.69602966
   H 0.24711609 0.42411804 0.70503235
   H 0.62352753 0.75647736 0.37801361
   H 0.64752960 0.74627686 0.38060760
   H 0.64073181 0.75793457 0.35820770
   H 0.72079468 0.64742279 0.32975006
   H 0.70884705 0.62682343 0.31914520
   H 0.71758270 0.62547302 0.34386444
   H 0.62213135 0.54911804 0.33000183
   H 0.64283752 0.56221008 0.32099915
   H 0.64337921 0.55211639 0.34519958
   H 0.51452637 0.64757538 0.37870789
   H 0.52457428 0.62332153 0.37805939
   H 0.51143646 0.63241577 0.35741425
   H 0.60993195 0.63227081 0.45610809
   H 0.58927155 0.62176514 0.44405365
   H 0.58797455 0.64642334 0.45295715
   H 0.62292480 0.67811584 0.45566559
   H 0.64517212 0.68537140 0.44396973
   H 0.64302826 0.66127014 0.45391083
   H 0.62512970 0.62526703 0.25079346
   H 0.64998627 0.62536621 0.25909424
   H 0.63993835 0.64682007 0.24814606
   H 0.51293182 0.67761993 0.34446716
   H 0.52388000 0.68756866 0.32291412
   H 0.51552582 0.66271210 0.32291412
   H 0.59452820 0.75847626 0.34511566
   H 0.58403778 0.74648285 0.32440948
   H 0.60868073 0.75532532 0.32315826
   H 0.71868896 0.68066406 0.35881042
   H 0.70869446 0.68276978 0.38291931
   H 0.72043610 0.66056824 0.37570953
   H 0.58768463 0.55316162 0.36031342
   H 0.58768463 0.56152344 0.38520813
   H 0.60918427 0.55062103 0.37526703
   H 0.73419952 0.67562103 0.25025177
   H 0.71263885 0.68652344 0.26020050
   H 0.71268463 0.67816162 0.23534393
   H 0.49848175 0.63156128 0.25289917
   H 0.52238464 0.62127686 0.25579834
   H 0.51587677 0.63281250 0.23325348
   H 0.59577942 0.77248383 0.45481110
   H 0.58383179 0.75182343 0.44421387
   H 0.59262848 0.75052643 0.46891022
   H 0.73374176 0.63037109 0.44820404
   H 0.70909119 0.62146759 0.44940948
   H 0.71949768 0.63347626 0.47011566
   H 0.73488617 0.75728607 0.33110809
   H 0.71428680 0.74673462 0.31905365
   H 0.71293640 0.77137756 0.32795715
   H 0.49792480 0.55311584 0.33066559
   H 0.52012634 0.56041718 0.31889343
   H 0.51808167 0.53625488 0.32891083
   H 0.50007629 0.75028229 0.37580872
   H 0.52498627 0.75038147 0.38417053
   H 0.51493835 0.77183533 0.37316132
   H 0.73494720 0.55601501 0.37470245
   H 0.71073914 0.55551910 0.38481140
   H 0.71974945 0.53475952 0.37170410
   H 0.63793182 0.55261993 0.46946716
   H 0.64892578 0.56256866 0.44795227
   H 0.64052582 0.53771210 0.44791412
   H 0.63647461 0.75743103 0.23236084
   H 0.64952850 0.74838257 0.25304413
   H 0.63948059 0.77258301 0.25369263
   H 0.59367371 0.55572510 0.23384094
   H 0.58367920 0.55772400 0.25794220
   H 0.59542084 0.53550720 0.25064850
   H 0.51833344 0.67707825 0.47019958
   H 0.51783752 0.68721008 0.44601440
   H 0.49713135 0.67411804 0.45500183
   H 0.37351227 0.75647736 0.37801361
   H 0.39751434 0.74627686 0.38060760
   H 0.39071655 0.75793457 0.35820770
   H 0.47077942 0.64742279 0.32975006
   H 0.45881653 0.62682343 0.31914520
   H 0.46756744 0.62547302 0.34386444
   H 0.37211609 0.54911804 0.33000183
   H 0.39282227 0.56221008 0.32099915
   H 0.39336395 0.55211639 0.34519958
   H 0.26451111 0.64757538 0.37870789
   H 0.27455902 0.62332153 0.37805939
   H 0.26140594 0.63241577 0.35741425
   H 0.35991669 0.63227081 0.45610809
   H 0.33927155 0.62176514 0.44405365
   H 0.33796692 0.64642334 0.45295715
   H 0.37292480 0.67811584 0.45566559
   H 0.39517212 0.68537140 0.44396973
   H 0.39302826 0.66127014 0.45391083
   H 0.37511444 0.62526703 0.25079346
   H 0.39997101 0.62536621 0.25909424
   H 0.38992310 0.64682007 0.24814606
   H 0.35991669 0.68101501 0.24970245
   H 0.33572388 0.68051910 0.25979614
   H 0.34471893 0.65976715 0.24670410
   H 0.26290131 0.67761993 0.34446716
   H 0.27386475 0.68756866 0.32291412
   H 0.26551056 0.66271210 0.32291412
   H 0.34452820 0.75847626 0.34511566
   H 0.33402252 0.74648285 0.32440948
   H 0.35866547 0.75532532 0.32315826
   H 0.46867371 0.68066406 0.35881042
   H 0.45866394 0.68276978 0.38291931
   H 0.47042084 0.66056824 0.37570953
   H 0.33766937 0.55316162 0.36031342
   H 0.33766937 0.56152344 0.38520813
   H 0.35916901 0.55062103 0.37526703
   H 0.48416901 0.67562103 0.25025177
   H 0.46262360 0.68652344 0.26020050
   H 0.46266937 0.67816162 0.23534393
   H 0.24845123 0.63156128 0.25289917
   H 0.27236938 0.62127686 0.25579834
   H 0.26586151 0.63281250 0.23325348
   H 0.34577942 0.77248383 0.45481110
   H 0.33381653 0.75182343 0.44421387
   H 0.34261322 0.75052643 0.46891022
   H 0.48372650 0.63037109 0.44820404
   H 0.45906067 0.62146759 0.44940948
   H 0.46946716 0.63347626 0.47011566
   H 0.48487091 0.75728607 0.33110809
   H 0.46427155 0.74673462 0.31905365
   H 0.46292114 0.77137756 0.32795715
   H 0.24790955 0.55311584 0.33066559
   H 0.27011108 0.56041718 0.31889343
   H 0.26805115 0.53625488 0.32891083
   H 0.25006104 0.75028229 0.37580872
   H 0.27495575 0.75038147 0.38417053
   H 0.26490784 0.77183533 0.37316132
   H 0.48491669 0.55601501 0.37470245
   H 0.46072388 0.55551910 0.38481140
   H 0.46971893 0.53475952 0.37170410
   H 0.38791656 0.55261993 0.46946716
   H 0.39892578 0.56256866 0.44795227
   H 0.39052582 0.53771210 0.44791412
   H 0.38647461 0.75743103 0.23236084
   H 0.39951324 0.74838257 0.25304413
   H 0.38946533 0.77258301 0.25369263
   H 0.34367371 0.55572510 0.23384094
   H 0.33366394 0.55772400 0.25794220
   H 0.34542084 0.53550720 0.25064850
   H 0.26830292 0.67707825 0.47019958
   H 0.26780701 0.68721008 0.44601440
   H 0.24711609 0.67411804 0.45500183
   H 0.62352753 0.50646210 0.37801361
   H 0.64752960 0.49626160 0.38060760
   H 0.64073181 0.50791931 0.35820770
   H 0.72079468 0.39740753 0.32975006
   H 0.70884705 0.37679291 0.31914520
   H 0.71758270 0.37545776 0.34386444
   H 0.62213135 0.29910278 0.33000183
   H 0.64283752 0.31219482 0.32099915
   H 0.64337921 0.30210114 0.34519958
   H 0.51452637 0.39756012 0.37870789
   H 0.52457428 0.37329102 0.37805939
   H 0.51143646 0.38241577 0.35741425
   H 0.60993195 0.38225555 0.45610809
   H 0.58927155 0.37174988 0.44405365
   H 0.58797455 0.39640808 0.45295715
   H 0.62292480 0.42810822 0.45566559
   H 0.64517212 0.43535614 0.44396973
   H 0.64302826 0.41125488 0.45391083
   H 0.62512970 0.37525177 0.25079346
   H 0.64998627 0.37535095 0.25909424
   H 0.63993835 0.39680481 0.24814606
   H 0.60993195 0.43099976 0.24970245
   H 0.58572388 0.43050385 0.25979614
   H 0.59473419 0.40975952 0.24670410
   H 0.51293182 0.42760468 0.34446716
   H 0.52388000 0.43756866 0.32291412
   H 0.51552582 0.41271210 0.32291412
   H 0.59452820 0.50846100 0.34511566
   H 0.58403778 0.49645233 0.32440948
   H 0.60868073 0.50531006 0.32315826
   H 0.71868896 0.43066406 0.35881042
   H 0.70869446 0.43275452 0.38291931
   H 0.72043610 0.41056824 0.37570953
   H 0.58768463 0.30314636 0.36031342
   H 0.58768463 0.31150818 0.38520813
   H 0.60918427 0.30060577 0.37526703
   H 0.73419952 0.42560577 0.25025177
   H 0.71263885 0.43650818 0.26020050
   H 0.71268463 0.42816162 0.23534393
   H 0.49848175 0.38156128 0.25289917
   H 0.52238464 0.37124634 0.25579834
   H 0.51587677 0.38281250 0.23325348
   H 0.59577942 0.52245331 0.45481110
   H 0.58383179 0.50180817 0.44421387
   H 0.59262848 0.50051880 0.46891022
   H 0.73374176 0.38035583 0.44820404
   H 0.70909119 0.37145233 0.44940948
   H 0.71949768 0.38346100 0.47011566
   H 0.73488617 0.50725555 0.33110809
   H 0.71428680 0.49670410 0.31905365
   H 0.71293640 0.52136230 0.32795715
   H 0.49792480 0.30310822 0.33066559
   H 0.52012634 0.31040192 0.31889343
   H 0.51808167 0.28625488 0.32891083
   H 0.50007629 0.50026703 0.37580872
   H 0.52498627 0.50035095 0.38417053
   H 0.51493835 0.52180481 0.37316132
   H 0.73494720 0.30599976 0.37470245
   H 0.71073914 0.30550385 0.38481140
   H 0.71974945 0.28475952 0.37170410
   H 0.63793182 0.30260468 0.46946716
   H 0.64892578 0.31255341 0.44795227
   H 0.64052582 0.28769684 0.44791412
   H 0.63647461 0.50741577 0.23236084
   H 0.64952850 0.49836731 0.25304413
   H 0.63948059 0.52256012 0.25369263
   H 0.59367371 0.30569458 0.23384094
   H 0.58367920 0.30769348 0.25794220
   H 0.59542084 0.28550720 0.25064850
   H 0.51833344 0.42706299 0.47019958
   H 0.51783752 0.43721008 0.44601440
   H 0.49713135 0.42411804 0.45500183
   C 0.33391571 0.50245667 0.39830780
   C 0.46482086 0.43625641 0.30494690
   C 0.39936829 0.30460358 0.39970398
   C 0.26721954 0.37105560 0.30439758
   C 0.33351898 0.30494690 0.30439758
   C 0.26711273 0.43790436 0.39905548
   C 0.40082550 0.50470734 0.30354309
   C 0.46707153 0.37039185 0.40026855
   C 0.41306305 0.37155914 0.45010376
   C 0.33331299 0.35665131 0.25235748
   C 0.31832123 0.43846130 0.45230865
   C 0.40022278 0.45141602 0.25239563
   C 0.41442108 0.43696594 0.25225067
   C 0.39862061 0.35736084 0.45005798
   C 0.31906891 0.37110138 0.25245667
   C 0.33277130 0.45265961 0.45230865
   C 0.46482086 0.45070648 0.31914520
   C 0.46707153 0.35594177 0.38606262
   C 0.31906891 0.30479431 0.31859589
   C 0.26696777 0.45210266 0.38460541
   C 0.41502380 0.50475311 0.31799316
   C 0.26730347 0.35679626 0.31880188
   C 0.31971741 0.50245667 0.38385773
   C 0.41377258 0.30475616 0.38545990
   C 0.45891571 0.37745667 0.27329254
   C 0.33982086 0.31125641 0.42996216
   C 0.27436829 0.42960358 0.27470398
   C 0.39217377 0.49600983 0.42941284
   C 0.45851898 0.42991638 0.42941284
   C 0.39211273 0.31290436 0.27404022
   C 0.27581024 0.37970734 0.42855835
   C 0.34207153 0.49540710 0.27525330
   C 0.28806305 0.49655914 0.32505798
   C 0.45831299 0.48171234 0.37735748
   C 0.44336700 0.31344604 0.32730865
   C 0.27520752 0.32640076 0.37741089
   C 0.28940582 0.31195068 0.37726593
   C 0.27362061 0.48236084 0.32505798
   C 0.44411469 0.49611664 0.37751770
   C 0.45777130 0.32765198 0.32730865
   C 0.33982086 0.32570648 0.44416046
   C 0.34207153 0.48100281 0.26104736
   C 0.44406891 0.42980957 0.44361115
   C 0.39196777 0.32710266 0.25959015
   C 0.29005432 0.37970734 0.44296265
   C 0.39231873 0.48181152 0.44380188
   C 0.44471741 0.37745667 0.25884247
   C 0.28875732 0.42980957 0.26044464
   C 0.58393097 0.75248718 0.64832306
   C 0.71484375 0.68627167 0.55496979
   C 0.64938354 0.55461884 0.64971924
   C 0.51722717 0.62107086 0.55441284
   C 0.58353424 0.55496979 0.55441284
   C 0.51712799 0.68791962 0.64907074
   C 0.65082550 0.75472260 0.55357361
   C 0.71708679 0.62042236 0.65026855
   C 0.66309357 0.62157440 0.70013428
   C 0.58332825 0.60666656 0.50237274
   C 0.56833649 0.68846130 0.70232391
   C 0.65023804 0.70142365 0.50241089
   C 0.66443634 0.68696594 0.50226593
   C 0.64862823 0.60736847 0.70007324
   C 0.56908417 0.62111664 0.50247192
   C 0.58278656 0.70265961 0.70232391
   C 0.71484375 0.70072174 0.56917572
   C 0.71708679 0.60597229 0.63606262
   C 0.56908417 0.55482483 0.56861115
   C 0.51698303 0.70211792 0.63462067
   C 0.66503906 0.75478363 0.56802368
   C 0.51733398 0.60681152 0.56881714
   C 0.56973267 0.75248718 0.63387299
   C 0.66378784 0.55476379 0.63547516
   C 0.70894623 0.62747192 0.52332306
   C 0.58982849 0.56127167 0.67996979
   C 0.52438354 0.67961884 0.52471924
   C 0.64218903 0.74602509 0.67942810
   C 0.70853424 0.67991638 0.67942810
   C 0.64212799 0.56291962 0.52407074
   C 0.52582550 0.62972260 0.67857361
   C 0.59208679 0.74542236 0.52526855
   C 0.53807831 0.74658966 0.57507324
   C 0.70834351 0.73172760 0.62737274
   C 0.69338989 0.56346130 0.57732391
   C 0.52523804 0.57642365 0.62741089
   C 0.53943634 0.56196594 0.62726593
   C 0.52362823 0.73238373 0.57507324
   C 0.69414520 0.74613190 0.62751770
   C 0.70778656 0.57765961 0.57732391
   C 0.58982849 0.57572174 0.69417572
   C 0.59208679 0.73103333 0.51106262
   C 0.69408417 0.67982483 0.69362640
   C 0.64198303 0.57711792 0.50962067
   C 0.54008484 0.62972260 0.69297791
   C 0.64233398 0.73182678 0.69383240
   C 0.69474792 0.62747192 0.50887299
   C 0.53877258 0.67982483 0.51047516
   C 0.33391571 0.75248718 0.64832306
   C 0.46482086 0.68627167 0.55496979
   C 0.39936829 0.55461884 0.64971924
   C 0.26721954 0.62107086 0.55441284
   C 0.33351898 0.55496979 0.55441284
   C 0.26711273 0.68791962 0.64907074
   C 0.40082550 0.75472260 0.55357361
   C 0.46707153 0.62042236 0.65026855
   C 0.41306305 0.62157440 0.70013428
   C 0.33331299 0.60666656 0.50237274
   C 0.31832123 0.68846130 0.70232391
   C 0.40022278 0.70142365 0.50241089
   C 0.41442108 0.68696594 0.50226593
   C 0.39862061 0.60736847 0.70007324
   C 0.31906891 0.62111664 0.50247192
   C 0.33277130 0.70265961 0.70232391
   C 0.46482086 0.70072174 0.56917572
   C 0.46707153 0.60597229 0.63606262
   C 0.31906891 0.55482483 0.56861115
   C 0.26696777 0.70211792 0.63462067
   C 0.41502380 0.75478363 0.56802368
   C 0.26730347 0.60681152 0.56881714
   C 0.31971741 0.75248718 0.63387299
   C 0.41377258 0.55476379 0.63547516
   C 0.45891571 0.62747192 0.52332306
   C 0.33982086 0.56127167 0.67996979
   C 0.27436829 0.67961884 0.52471924
   C 0.39217377 0.74602509 0.67942810
   C 0.45851898 0.67991638 0.67942810
   C 0.39211273 0.56291962 0.52407074
   C 0.27581024 0.62972260 0.67857361
   C 0.34207153 0.74542236 0.52526855
   C 0.28806305 0.74658966 0.57507324
   C 0.45831299 0.73172760 0.62737274
   C 0.44336700 0.56346130 0.57732391
   C 0.27520752 0.57642365 0.62741089
   C 0.28940582 0.56196594 0.62726593
   C 0.27362061 0.73238373 0.57507324
   C 0.44411469 0.74613190 0.62751770
   C 0.45777130 0.57765961 0.57732391
   C 0.33982086 0.57572174 0.69417572
   C 0.34207153 0.73103333 0.51106262
   C 0.44406891 0.67982483 0.69362640
   C 0.39196777 0.57711792 0.50962067
   C 0.29005432 0.62972260 0.69297791
   C 0.39231873 0.73182678 0.69383240
   C 0.44471741 0.62747192 0.50887299
   C 0.28875732 0.67982483 0.51047516
   C 0.58393097 0.50245667 0.64832306
   C 0.71484375 0.43625641 0.55496979
   C 0.64938354 0.30460358 0.64971924
   C 0.51722717 0.37105560 0.55441284
   C 0.58353424 0.30494690 0.55441284
   C 0.51712799 0.43790436 0.64907074
   C 0.65082550 0.50470734 0.55357361
   C 0.71708679 0.37039185 0.65026855
   C 0.66309357 0.37155914 0.70013428
   C 0.58332825 0.35665131 0.50237274
   C 0.56833649 0.43846130 0.70232391
   C 0.65023804 0.45141602 0.50241089
   C 0.66443634 0.43696594 0.50226593
   C 0.64862823 0.35736084 0.70007324
   C 0.56908417 0.37110138 0.50247192
   C 0.58278656 0.45265961 0.70232391
   C 0.71484375 0.45070648 0.56917572
   C 0.71708679 0.35594177 0.63606262
   C 0.56908417 0.30479431 0.56861115
   C 0.51698303 0.45210266 0.63462067
   C 0.66503906 0.50475311 0.56802368
   C 0.51733398 0.35679626 0.56881714
   C 0.56973267 0.50245667 0.63387299
   C 0.66378784 0.30475616 0.63547516
   C 0.70894623 0.37745667 0.52332306
   C 0.58982849 0.31125641 0.67996979
   C 0.52438354 0.42960358 0.52471924
   C 0.64218903 0.49600983 0.67942810
   C 0.70853424 0.42991638 0.67942810
   C 0.64212799 0.31290436 0.52407074
   C 0.52582550 0.37970734 0.67857361
   C 0.59208679 0.49540710 0.52526855
   C 0.53807831 0.49655914 0.57507324
   C 0.70834351 0.48171234 0.62737274
   C 0.69338989 0.31344604 0.57732391
   C 0.52523804 0.32640076 0.62741089
   C 0.53943634 0.31195068 0.62726593
   C 0.52362823 0.48236084 0.57507324
   C 0.69414520 0.49611664 0.62751770
   C 0.70778656 0.32765198 0.57732391
   C 0.58982849 0.32570648 0.69417572
   C 0.59208679 0.48100281 0.51106262
   C 0.69408417 0.42980957 0.69362640
   C 0.64198303 0.32710266 0.50962067
   C 0.54008484 0.37970734 0.69297791
   C 0.64233398 0.48181152 0.69383240
   C 0.69474792 0.37745667 0.50887299
   C 0.53877258 0.42980957 0.51047516
   C 0.33391571 0.50245667 0.64832306
   C 0.46482086 0.43625641 0.55496979
   C 0.39936829 0.30460358 0.64971924
   C 0.26721954 0.37105560 0.55441284
   C 0.33351898 0.30494690 0.55441284
   C 0.26711273 0.43790436 0.64907074
   C 0.40082550 0.50470734 0.55357361
   C 0.46707153 0.37039185 0.65026855
   C 0.41306305 0.37155914 0.70013428
   C 0.33331299 0.35665131 0.50237274
   C 0.31832123 0.43846130 0.70232391
   C 0.40022278 0.45141602 0.50241089
   C 0.41442108 0.43696594 0.50226593
   C 0.39862061 0.35736084 0.70007324
   C 0.31906891 0.37110138 0.50247192
   C 0.33277130 0.45265961 0.70232391
   C 0.46482086 0.45070648 0.56917572
   C 0.46707153 0.35594177 0.63606262
   C 0.31906891 0.30479431 0.56861115
   C 0.26696777 0.45210266 0.63462067
   C 0.41502380 0.50475311 0.56802368
   C 0.26730347 0.35679626 0.56881714
   C 0.31971741 0.50245667 0.63387299
   C 0.41377258 0.30475616 0.63547516
   C 0.45891571 0.37745667 0.52332306
   C 0.33982086 0.31125641 0.67996979
   C 0.27436829 0.42960358 0.52471924
   C 0.39217377 0.49600983 0.67942810
   C 0.45851898 0.42991638 0.67942810
   C 0.39211273 0.31290436 0.52407074
   C 0.27581024 0.37970734 0.67857361
   C 0.34207153 0.49540710 0.52526855
   C 0.28806305 0.49655914 0.57507324
   C 0.45831299 0.48171234 0.62737274
   C 0.44336700 0.31344604 0.57732391
   C 0.27520752 0.32640076 0.62741089
   C 0.28940582 0.31195068 0.62726593
   C 0.27362061 0.48236084 0.57507324
   C 0.44411469 0.49611664 0.62751770
   C 0.45777130 0.32765198 0.57732391
   C 0.33982086 0.32570648 0.69417572
   C 0.34207153 0.48100281 0.51106262
   C 0.44406891 0.42980957 0.69362640
   C 0.39196777 0.32710266 0.50962067
   C 0.29005432 0.37970734 0.69297791
   C 0.39231873 0.48181152 0.69383240
   C 0.44471741 0.37745667 0.50887299
   C 0.28875732 0.42980957 0.51047516
   C 0.71484375 0.68627167 0.30494690
   C 0.64938354 0.55461884 0.39970398
   C 0.51722717 0.62107086 0.30439758
   C 0.58353424 0.55496979 0.30439758
   C 0.51712799 0.68791962 0.39905548
   C 0.65082550 0.75472260 0.30354309
   C 0.71708679 0.62042236 0.40026855
   C 0.66309357 0.62157440 0.45010376
   C 0.58332825 0.60666656 0.25235748
   C 0.56833649 0.68846130 0.45230865
   C 0.65023804 0.70142365 0.25239563
   C 0.66443634 0.68696594 0.25225067
   C 0.64862823 0.60736847 0.45005798
   C 0.56908417 0.62111664 0.25245667
   C 0.58278656 0.70265961 0.45230865
   C 0.71484375 0.70072174 0.31914520
   C 0.71708679 0.60597229 0.38606262
   C 0.56908417 0.55482483 0.31859589
   C 0.51698303 0.70211792 0.38460541
   C 0.66503906 0.75478363 0.31799316
   C 0.51733398 0.60681152 0.31880188
   C 0.66378784 0.55476379 0.38545990
   C 0.70894623 0.62747192 0.27329254
   C 0.58982849 0.56127167 0.42996216
   C 0.52438354 0.67961884 0.27470398
   C 0.64218903 0.74602509 0.42941284
   C 0.70853424 0.67991638 0.42941284
   C 0.64212799 0.56291962 0.27404022
   C 0.52582550 0.62972260 0.42855835
   C 0.59208679 0.74542236 0.27525330
   C 0.53807831 0.74658966 0.32505798
   C 0.70834351 0.73172760 0.37735748
   C 0.69338989 0.56346130 0.32730865
   C 0.52523804 0.57642365 0.37741089
   C 0.53943634 0.56196594 0.37726593
   C 0.52362823 0.73238373 0.32505798
   C 0.69414520 0.74613190 0.37751770
   C 0.70778656 0.57765961 0.32730865
   C 0.58982849 0.57572174 0.44416046
   C 0.59208679 0.73103333 0.26104736
   C 0.69408417 0.67982483 0.44361115
   C 0.64198303 0.57711792 0.25959015
   C 0.54008484 0.62972260 0.44296265
   C 0.64233398 0.73182678 0.44380188
   C 0.69474792 0.62747192 0.25884247
   C 0.53877258 0.67982483 0.26044464
   C 0.33391571 0.75248718 0.39830780
   C 0.46482086 0.68627167 0.30494690
   C 0.39936829 0.55461884 0.39970398
   C 0.26721954 0.62107086 0.30439758
   C 0.33351898 0.55496979 0.30439758
   C 0.26711273 0.68791962 0.39905548
   C 0.40082550 0.75472260 0.30354309
   C 0.46707153 0.62042236 0.40026855
   C 0.41306305 0.62157440 0.45010376
   C 0.33331299 0.60666656 0.25235748
   C 0.31832123 0.68846130 0.45230865
   C 0.40022278 0.70142365 0.25239563
   C 0.41442108 0.68696594 0.25225067
   C 0.39862061 0.60736847 0.45005798
   C 0.31906891 0.62111664 0.25245667
   C 0.33277130 0.70265961 0.45230865
   C 0.46482086 0.70072174 0.31914520
   C 0.46707153 0.60597229 0.38606262
   C 0.31906891 0.55482483 0.31859589
   C 0.26696777 0.70211792 0.38460541
   C 0.41502380 0.75478363 0.31799316
   C 0.26730347 0.60681152 0.31880188
   C 0.31971741 0.75248718 0.38385773
   C 0.41377258 0.55476379 0.38545990
   C 0.45891571 0.62747192 0.27329254
   C 0.33982086 0.56127167 0.42996216
   C 0.27436829 0.67961884 0.27470398
   C 0.39217377 0.74602509 0.42941284
   C 0.45851898 0.67991638 0.42941284
   C 0.39211273 0.56291962 0.27404022
   C 0.27581024 0.62972260 0.42855835
   C 0.34207153 0.74542236 0.27525330
   C 0.28806305 0.74658966 0.32505798
   C 0.45831299 0.73172760 0.37735748
   C 0.44336700 0.56346130 0.32730865
   C 0.27520752 0.57642365 0.37741089
   C 0.28940582 0.56196594 0.37726593
   C 0.27362061 0.73238373 0.32505798
   C 0.44411469 0.74613190 0.37751770
   C 0.45777130 0.57765961 0.32730865
   C 0.33982086 0.57572174 0.44416046
   C 0.34207153 0.73103333 0.26104736
   C 0.44406891 0.67982483 0.44361115
   C 0.39196777 0.57711792 0.25959015
   C 0.29005432 0.62972260 0.44296265
   C 0.39231873 0.73182678 0.44380188
   C 0.44471741 0.62747192 0.25884247
   C 0.28875732 0.67982483 0.26044464
   C 0.58393097 0.50245667 0.39830780
   C 0.71484375 0.43625641 0.30494690
   C 0.64938354 0.30460358 0.39970398
   C 0.51722717 0.37105560 0.30439758
   C 0.58353424 0.30494690 0.30439758
   C 0.51712799 0.43790436 0.39905548
   C 0.65082550 0.50470734 0.30354309
   C 0.71708679 0.37039185 0.40026855
   C 0.66309357 0.37155914 0.45010376
   C 0.58332825 0.35665131 0.25235748
   C 0.56833649 0.43846130 0.45230865
   C 0.65023804 0.45141602 0.25239563
   C 0.66443634 0.43696594 0.25225067
   C 0.64862823 0.35736084 0.45005798
   C 0.56908417 0.37110138 0.25245667
   C 0.58278656 0.45265961 0.45230865
   C 0.71484375 0.45070648 0.31914520
   C 0.71708679 0.35594177 0.38606262
   C 0.56908417 0.30479431 0.31859589
   C 0.51698303 0.45210266 0.38460541
   C 0.66503906 0.50475311 0.31799316
   C 0.51733398 0.35679626 0.31880188
   C 0.56973267 0.50245667 0.38385773
   C 0.66378784 0.30475616 0.38545990
   C 0.70894623 0.37745667 0.27329254
   C 0.58982849 0.31125641 0.42996216
   C 0.52438354 0.42960358 0.27470398
   C 0.64218903 0.49600983 0.42941284
   C 0.70853424 0.42991638 0.42941284
   C 0.64212799 0.31290436 0.27404022
   C 0.52582550 0.37970734 0.42855835
   C 0.59208679 0.49540710 0.27525330
   C 0.53807831 0.49655914 0.32505798
   C 0.70834351 0.48171234 0.37735748
   C 0.69338989 0.31344604 0.32730865
   C 0.52523804 0.32640076 0.37741089
   C 0.53943634 0.31195068 0.37726593
   C 0.52362823 0.48236084 0.32505798
   C 0.69414520 0.49611664 0.37751770
   C 0.70778656 0.32765198 0.32730865
   C 0.58982849 0.32570648 0.44416046
   C 0.59208679 0.48100281 0.26104736
   C 0.69408417 0.42980957 0.44361115
   C 0.64198303 0.32710266 0.25959015
   C 0.54008484 0.37970734 0.44296265
   C 0.64233398 0.48181152 0.44380188
   C 0.69474792 0.37745667 0.25884247
   C 0.53877258 0.42980957 0.26044464
   H 0.33762360 0.49140930 0.40931702
   H 0.45376587 0.43235779 0.29399872
   H 0.39592743 0.31524658 0.41115570
   H 0.27791595 0.37445831 0.29299927
   H 0.33692169 0.31580353 0.29314423
   H 0.27791595 0.43471527 0.41046143
   H 0.39797211 0.49430847 0.29170227
   H 0.45666504 0.37345123 0.41206360
   H 0.42407227 0.37525177 0.43906403
   H 0.33666992 0.34519958 0.26299286
   H 0.30650330 0.43560791 0.44190979
   H 0.39701080 0.46281433 0.26319885
   H 0.42592621 0.43350220 0.26290131
   H 0.39477539 0.34639740 0.43901062
   H 0.30775452 0.37449646 0.26330566
   H 0.33581543 0.46446228 0.44190979
   H 0.45376587 0.46171570 0.32280731
   H 0.45666504 0.34414673 0.38320923
   H 0.30766296 0.31549072 0.32199860
   H 0.27760315 0.46360779 0.38116455
   H 0.42687225 0.49436188 0.32099915
   H 0.27820587 0.34560394 0.32230377
   H 0.30875397 0.49140930 0.37995911
   H 0.42517853 0.31555176 0.38231659
   H 0.46262360 0.36640930 0.28430176
   H 0.32876587 0.30735779 0.41901398
   H 0.27091217 0.44026184 0.28615570
   H 0.40287018 0.49941254 0.41796875
   H 0.46192169 0.44080353 0.41811371
   H 0.40291595 0.30970001 0.28544617
   H 0.27295685 0.36930847 0.41671753
   H 0.33166504 0.49845123 0.28704834
   H 0.29905701 0.50026703 0.31404877
   H 0.46171570 0.47026062 0.38806915
   H 0.43151855 0.31059265 0.31690979
   H 0.27205658 0.33779907 0.38821411
   H 0.30091095 0.30850220 0.38790131
   H 0.26976013 0.47141266 0.31399536
   H 0.43281555 0.49955750 0.38835907
   H 0.46081543 0.33944702 0.31690979
   H 0.32882690 0.33670044 0.44780731
   H 0.33161926 0.46916199 0.25819397
   H 0.43266296 0.44046783 0.44701385
   H 0.40257263 0.33859253 0.25614929
   H 0.30185699 0.36934662 0.44601440
   H 0.40316010 0.47055817 0.44726562
   H 0.43381500 0.36640930 0.25494385
   H 0.30016327 0.44061279 0.25730133
   H 0.58762360 0.74143982 0.65931702
   H 0.70379639 0.68237305 0.54402924
   H 0.64592743 0.56527710 0.66117096
   H 0.52793121 0.62447357 0.54302216
   H 0.58693695 0.56581879 0.54317474
   H 0.52793121 0.68472290 0.66047668
   H 0.64798737 0.74433136 0.54171753
   H 0.70669556 0.62346649 0.66206360
   H 0.67408752 0.62526703 0.68907928
   H 0.58668518 0.59521484 0.51302338
   H 0.55653381 0.68562317 0.69193268
   H 0.64702606 0.71281433 0.51321411
   H 0.67594147 0.68351746 0.51291656
   H 0.64477539 0.59642792 0.68902588
   H 0.55778503 0.62451172 0.51331329
   H 0.58583069 0.71446228 0.69193268
   H 0.70379639 0.71171570 0.57282257
   H 0.70669556 0.59416962 0.63322449
   H 0.55767822 0.56552124 0.57201385
   H 0.52763367 0.71362305 0.63116455
   H 0.67687988 0.74437714 0.57102966
   H 0.52823639 0.59561157 0.57231903
   H 0.55878448 0.74143982 0.62997437
   H 0.67519379 0.56556702 0.63231659
   H 0.71263885 0.61642456 0.53431702
   H 0.57878113 0.55737305 0.66902924
   H 0.52092743 0.69027710 0.53617096
   H 0.65288544 0.74942780 0.66798401
   H 0.71193695 0.69081879 0.66812897
   H 0.65293121 0.55972290 0.53547668
   H 0.52298737 0.61932373 0.66673279
   H 0.58168030 0.74848175 0.53706360
   H 0.54907227 0.75028229 0.56406403
   H 0.71173859 0.72027588 0.63806915
   H 0.68153381 0.56062317 0.56692505
   H 0.52208710 0.58781433 0.63821411
   H 0.55092621 0.55851746 0.63791656
   H 0.51977539 0.72142792 0.56402588
   H 0.68284607 0.74957275 0.63837433
   H 0.71084595 0.58946228 0.56692505
   H 0.57882690 0.58671570 0.69783783
   H 0.58163452 0.71916962 0.50822449
   H 0.68269348 0.69046783 0.69702911
   H 0.65257263 0.58862305 0.50616455
   H 0.55187988 0.61936188 0.69602966
   H 0.65317535 0.72058868 0.69728088
   H 0.68384552 0.61642456 0.50497437
   H 0.55017853 0.69062805 0.50731659
   H 0.33762360 0.74143982 0.65931702
   H 0.45376587 0.68237305 0.54402924
   H 0.39592743 0.56527710 0.66117096
   H 0.27791595 0.62447357 0.54302216
   H 0.33692169 0.56581879 0.54317474
   H 0.27791595 0.68472290 0.66047668
   H 0.39797211 0.74433136 0.54171753
   H 0.45666504 0.62346649 0.66206360
   H 0.42407227 0.62526703 0.68907928
   H 0.33666992 0.59521484 0.51302338
   H 0.30650330 0.68562317 0.69193268
   H 0.39701080 0.71281433 0.51321411
   H 0.42592621 0.68351746 0.51291656
   H 0.39477539 0.59642792 0.68902588
   H 0.30775452 0.62451172 0.51331329
   H 0.33581543 0.71446228 0.69193268
   H 0.45376587 0.71171570 0.57282257
   H 0.45666504 0.59416962 0.63322449
   H 0.30766296 0.56552124 0.57201385
   H 0.27760315 0.71362305 0.63116455
   H 0.42687225 0.74437714 0.57102966
   H 0.27820587 0.59561157 0.57231903
   H 0.30875397 0.74143982 0.62997437
   H 0.42517853 0.56556702 0.63231659
   H 0.46262360 0.61642456 0.53431702
   H 0.32876587 0.55737305 0.66902924
   H 0.27091217 0.69027710 0.53617096
   H 0.40287018 0.74942780 0.66798401
   H 0.46192169 0.69081879 0.66812897
   H 0.40291595 0.55972290 0.53547668
   H 0.27295685 0.61932373 0.66673279
   H 0.33166504 0.74848175 0.53706360
   H 0.29905701 0.75028229 0.56406403
   H 0.46171570 0.72027588 0.63806915
   H 0.43151855 0.56062317 0.56692505
   H 0.27205658 0.58781433 0.63821411
   H 0.30091095 0.55851746 0.63791656
   H 0.26976013 0.72142792 0.56402588
   H 0.43281555 0.74957275 0.63837433
   H 0.46081543 0.58946228 0.56692505
   H 0.32882690 0.58671570 0.69783783
   H 0.33161926 0.71916962 0.50822449
   H 0.43266296 0.69046783 0.69702911
   H 0.40257263 0.58862305 0.50616455
   H 0.30185699 0.61936188 0.69602966
   H 0.40316010 0.72058868 0.69728088
   H 0.43381500 0.61642456 0.50497437
   H 0.30016327 0.69062805 0.50731659
   H 0.58762360 0.49140930 0.65931702
   H 0.70379639 0.43235779 0.54402924
   H 0.64592743 0.31524658 0.66117096
   H 0.52793121 0.37445831 0.54302216
   H 0.58693695 0.31580353 0.54317474
   H 0.52793121 0.43471527 0.66047668
   H 0.64798737 0.49430847 0.54171753
   H 0.70669556 0.37345123 0.66206360
   H 0.67408752 0.37525177 0.68907928
   H 0.58668518 0.34519958 0.51302338
   H 0.55653381 0.43560791 0.69193268
   H 0.64702606 0.46281433 0.51321411
   H 0.67594147 0.43350220 0.51291656
   H 0.64477539 0.34639740 0.68902588
   H 0.55778503 0.37449646 0.51331329
   H 0.58583069 0.46446228 0.69193268
   H 0.70379639 0.46171570 0.57282257
   H 0.70669556 0.34414673 0.63322449
   H 0.55767822 0.31549072 0.57201385
   H 0.52763367 0.46360779 0.63116455
   H 0.67687988 0.49436188 0.57102966
   H 0.52823639 0.34560394 0.57231903
   H 0.55878448 0.49140930 0.62997437
   H 0.67519379 0.31555176 0.63231659
   H 0.71263885 0.36640930 0.53431702
   H 0.57878113 0.30735779 0.66902924
   H 0.52092743 0.44026184 0.53617096
   H 0.65288544 0.49941254 0.66798401
   H 0.71193695 0.44080353 0.66812897
   H 0.65293121 0.30970001 0.53547668
   H 0.52298737 0.36930847 0.66673279
   H 0.58168030 0.49845123 0.53706360
   H 0.54907227 0.50026703 0.56406403
   H 0.71173859 0.47026062 0.63806915
   H 0.68153381 0.31059265 0.56692505
   H 0.52208710 0.33779907 0.63821411
   H 0.55092621 0.30850220 0.63791656
   H 0.51977539 0.47141266 0.56402588
   H 0.68284607 0.49955750 0.63837433
   H 0.71084595 0.33944702 0.56692505
   H 0.57882690 0.33670044 0.69783783
   H 0.58163452 0.46916199 0.50822449
   H 0.68269348 0.44046783 0.69702911
   H 0.65257263 0.33859253 0.50616455
   H 0.55187988 0.36934662 0.69602966
   H 0.65317535 0.47055817 0.69728088
   H 0.68384552 0.36640930 0.50497437
   H 0.55017853 0.44061279 0.50731659
   H 0.33762360 0.49140930 0.65931702
   H 0.45376587 0.43235779 0.54402924
   H 0.39592743 0.31524658 0.66117096
   H 0.27791595 0.37445831 0.54302216
   H 0.33692169 0.31580353 0.54317474
   H 0.27791595 0.43471527 0.66047668
   H 0.39797211 0.49430847 0.54171753
   H 0.45666504 0.37345123 0.66206360
   H 0.42407227 0.37525177 0.68907928
   H 0.33666992 0.34519958 0.51302338
   H 0.30650330 0.43560791 0.69193268
   H 0.39701080 0.46281433 0.51321411
   H 0.42592621 0.43350220 0.51291656
   H 0.39477539 0.34639740 0.68902588
   H 0.30775452 0.37449646 0.51331329
   H 0.33581543 0.46446228 0.69193268
   H 0.45376587 0.46171570 0.57282257
   H 0.45666504 0.34414673 0.63322449
   H 0.30766296 0.31549072 0.57201385
   H 0.27760315 0.46360779 0.63116455
   H 0.42687225 0.49436188 0.57102966
   H 0.27820587 0.34560394 0.57231903
   H 0.30875397 0.49140930 0.62997437
   H 0.42517853 0.31555176 0.63231659
   H 0.46262360 0.36640930 0.53431702
   H 0.32876587 0.30735779 0.66902924
   H 0.27091217 0.44026184 0.53617096
   H 0.40287018 0.49941254 0.66798401
   H 0.46192169 0.44080353 0.66812897
   H 0.40291595 0.30970001 0.53547668
   H 0.27295685 0.36930847 0.66673279
   H 0.33166504 0.49845123 0.53706360
   H 0.29905701 0.50026703 0.56406403
   H 0.46171570 0.47026062 0.63806915
   H 0.43151855 0.31059265 0.56692505
   H 0.27205658 0.33779907 0.63821411
   H 0.30091095 0.30850220 0.63791656
   H 0.26976013 0.47141266 0.56402588
   H 0.43281555 0.49955750 0.63837433
   H 0.46081543 0.33944702 0.56692505
   H 0.32882690 0.33670044 0.69783783
   H 0.33161926 0.46916199 0.50822449
   H 0.43266296 0.44046783 0.69702911
   H 0.40257263 0.33859253 0.50616455
   H 0.30185699 0.36934662 0.69602966
   H 0.40316010 0.47055817 0.69728088
   H 0.43381500 0.36640930 0.50497437
   H 0.30016327 0.44061279 0.50731659
   H 0.70379639 0.68237305 0.29399872
   H 0.64592743 0.56527710 0.41115570
   H 0.52793121 0.62447357 0.29299927
   H 0.58693695 0.56581879 0.29314423
   H 0.52793121 0.68472290 0.41046143
   H 0.64798737 0.74433136 0.29170227
   H 0.70669556 0.62346649 0.41206360
   H 0.67408752 0.62526703 0.43906403
   H 0.58668518 0.59521484 0.26299286
   H 0.55653381 0.68562317 0.44190979
   H 0.64702606 0.71281433 0.26319885
   H 0.67594147 0.68351746 0.26290131
   H 0.64477539 0.59642792 0.43901062
   H 0.55778503 0.62451172 0.26330566
   H 0.58583069 0.71446228 0.44190979
   H 0.70379639 0.71171570 0.32280731
   H 0.70669556 0.59416962 0.38320923
   H 0.55767822 0.56552124 0.32199860
   H 0.52763367 0.71362305 0.38116455
   H 0.67687988 0.74437714 0.32099915
   H 0.52823639 0.59561157 0.32230377
   H 0.67519379 0.56556702 0.38231659
   H 0.71263885 0.61642456 0.28430176
   H 0.57878113 0.55737305 0.41901398
   H 0.52092743 0.69027710 0.28615570
   H 0.65288544 0.74942780 0.41796875
   H 0.71193695 0.69081879 0.41811371
   H 0.65293121 0.55972290 0.28544617
   H 0.52298737 0.61932373 0.41671753
   H 0.58168030 0.74848175 0.28704834
   H 0.54907227 0.75028229 0.31404877
   H 0.71173859 0.72027588 0.38806915
   H 0.68153381 0.56062317 0.31690979
   H 0.52208710 0.58781433 0.38821411
   H 0.55092621 0.55851746 0.38790131
   H 0.51977539 0.72142792 0.31399536
   H 0.68284607 0.74957275 0.38835907
   H 0.71084595 0.58946228 0.31690979
   H 0.57882690 0.58671570 0.44780731
   H 0.58163452 0.71916962 0.25819397
   H 0.68269348 0.69046783 0.44701385
   H 0.65257263 0.58862305 0.25614929
   H 0.55187988 0.61936188 0.44601440
   H 0.65317535 0.72058868 0.44726562
   H 0.68384552 0.61642456 0.25494385
   H 0.55017853 0.69062805 0.25730133
   H 0.33762360 0.74143982 0.40931702
   H 0.45376587 0.68237305 0.29399872
   H 0.39592743 0.56527710 0.41115570
   H 0.27791595 0.62447357 0.29299927
   H 0.33692169 0.56581879 0.29314423
   H 0.27791595 0.68472290 0.41046143
   H 0.39797211 0.74433136 0.29170227
   H 0.45666504 0.62346649 0.41206360
   H 0.42407227 0.62526703 0.43906403
   H 0.33666992 0.59521484 0.26299286
   H 0.30650330 0.68562317 0.44190979
   H 0.39701080 0.71281433 0.26319885
   H 0.42592621 0.68351746 0.26290131
   H 0.39477539 0.59642792 0.43901062
   H 0.30775452 0.62451172 0.26330566
   H 0.33581543 0.71446228 0.44190979
   H 0.45376587 0.71171570 0.32280731
   H 0.45666504 0.59416962 0.38320923
   H 0.30766296 0.56552124 0.32199860
   H 0.27760315 0.71362305 0.38116455
   H 0.42687225 0.74437714 0.32099915
   H 0.27820587 0.59561157 0.32230377
   H 0.30875397 0.74143982 0.37995911
   H 0.42517853 0.56556702 0.38231659
   H 0.46262360 0.61642456 0.28430176
   H 0.32876587 0.55737305 0.41901398
   H 0.27091217 0.69027710 0.28615570
   H 0.40287018 0.74942780 0.41796875
   H 0.46192169 0.69081879 0.41811371
   H 0.40291595 0.55972290 0.28544617
   H 0.27295685 0.61932373 0.41671753
   H 0.33166504 0.74848175 0.28704834
   H 0.29905701 0.75028229 0.31404877
   H 0.46171570 0.72027588 0.38806915
   H 0.43151855 0.56062317 0.31690979
   H 0.27205658 0.58781433 0.38821411
   H 0.30091095 0.55851746 0.38790131
   H 0.26976013 0.72142792 0.31399536
   H 0.43281555 0.74957275 0.38835907
   H 0.46081543 0.58946228 0.31690979
   H 0.32882690 0.58671570 0.44780731
   H 0.33161926 0.71916962 0.25819397
   H 0.43266296 0.69046783 0.44701385
   H 0.40257263 0.58862305 0.25614929
   H 0.30185699 0.61936188 0.44601440
   H 0.40316010 0.72058868 0.44726562
   H 0.43381500 0.61642456 0.25494385
   H 0.30016327 0.69062805 0.25730133
   H 0.58762360 0.49140930 0.40931702
   H 0.70379639 0.43235779 0.29399872
   H 0.64592743 0.31524658 0.41115570
   H 0.52793121 0.37445831 0.29299927
   H 0.58693695 0.31580353 0.29314423
   H 0.52793121 0.43471527 0.41046143
   H 0.64798737 0.49430847 0.29170227
   H 0.70669556 0.37345123 0.41206360
   H 0.67408752 0.37525177 0.43906403
   H 0.58668518 0.34519958 0.26299286
   H 0.55653381 0.43560791 0.44190979
   H 0.64702606 0.46281433 0.26319885
   H 0.67594147 0.43350220 0.26290131
   H 0.64477539 0.34639740 0.43901062
   H 0.55778503 0.37449646 0.26330566
   H 0.58583069 0.46446228 0.44190979
   H 0.70379639 0.46171570 0.32280731
   H 0.70669556 0.34414673 0.38320923
   H 0.55767822 0.31549072 0.32199860
   H 0.52763367 0.46360779 0.38116455
   H 0.67687988 0.49436188 0.32099915
   H 0.52823639 0.34560394 0.32230377
   H 0.55878448 0.49140930 0.37995911
   H 0.67519379 0.31555176 0.38231659
   H 0.71263885 0.36640930 0.28430176
   H 0.57878113 0.30735779 0.41901398
   H 0.52092743 0.44026184 0.28615570
   H 0.65288544 0.49941254 0.41796875
   H 0.71193695 0.44080353 0.41811371
   H 0.65293121 0.30970001 0.28544617
   H 0.52298737 0.36930847 0.41671753
   H 0.58168030 0.49845123 0.28704834
   H 0.54907227 0.50026703 0.31404877
   H 0.71173859 0.47026062 0.38806915
   H 0.68153381 0.31059265 0.31690979
   H 0.52208710 0.33779907 0.38821411
   H 0.55092621 0.30850220 0.38790131
   H 0.51977539 0.47141266 0.31399536
   H 0.68284607 0.49955750 0.38835907
   H 0.71084595 0.33944702 0.31690979
   H 0.57882690 0.33670044 0.44780731
   H 0.58163452 0.46916199 0.25819397
   H 0.68269348 0.44046783 0.44701385
   H 0.65257263 0.33859253 0.25614929
   H 0.55187988 0.36934662 0.44601440
   H 0.65317535 0.47055817 0.44726562
   H 0.68384552 0.36640930 0.25494385
   H 0.55017853 0.44061279 0.25730133
   N 0.34411621 0.52005768 0.39705658
   N 0.48241425 0.42605591 0.30640411
   N 0.38851929 0.28749084 0.39745331
   N 0.24990845 0.38170624 0.30629730
   N 0.34436798 0.28774261 0.30629730
   N 0.25006104 0.42685699 0.39716339
   N 0.38927460 0.52136230 0.30615234
   N 0.48366547 0.38191223 0.39756012
   N 0.41181946 0.38175201 0.46772003
   N 0.34407043 0.35865021 0.23509216
   N 0.32092285 0.42691040 0.46896362
   N 0.38921356 0.44951630 0.23534393
   N 0.41221619 0.42616272 0.23509216
   N 0.38842010 0.35880280 0.46765900
   N 0.32102966 0.38200378 0.23534393
   N 0.34427643 0.44991302 0.46896362
   N 0.48241425 0.44945526 0.32935333
   N 0.48366547 0.35855103 0.37451172
   N 0.32106781 0.28755188 0.32930756
   N 0.24985504 0.44985199 0.37376404
   N 0.41231537 0.52136230 0.32950592
   N 0.25016022 0.35869598 0.32966614
   N 0.32117462 0.52005768 0.37365723
   N 0.41187286 0.28774261 0.37445831
   N 0.46911621 0.39505768 0.27205658
   N 0.35741425 0.30104828 0.43141174
   N 0.26351166 0.41246033 0.27245331
   N 0.37492371 0.50670624 0.43131256
   N 0.46936798 0.41281891 0.43131256
   N 0.37507629 0.30185699 0.27214813
   N 0.26425934 0.39636230 0.43116760
   N 0.35872650 0.50691223 0.27254486
   N 0.28675842 0.50675201 0.34265900
   N 0.46907043 0.48366547 0.36010742
   N 0.44592285 0.30189514 0.34391022
   N 0.26421356 0.32454681 0.36035919
   N 0.28715515 0.30114746 0.36010742
   N 0.26340485 0.48381042 0.34265900
   N 0.44602966 0.50700378 0.36035919
   N 0.46927643 0.32495880 0.34396362
   N 0.35741425 0.32445526 0.45435333
   N 0.35866547 0.48356628 0.24949646
   N 0.44602966 0.41256714 0.45431519
   N 0.37482452 0.32485199 0.24874878
   N 0.28725433 0.39636230 0.45450592
   N 0.37517548 0.48371124 0.45466614
   N 0.44617462 0.39505768 0.24864960
   N 0.28685760 0.41271210 0.24945831
   N 0.59413147 0.77008820 0.64707184
   N 0.73244476 0.67607117 0.55641174
   N 0.63851929 0.53750610 0.64746857
   N 0.49992371 0.63172150 0.55632782
   N 0.59437561 0.53775787 0.55632782
   N 0.50007629 0.67687225 0.64717102
   N 0.63927460 0.77137756 0.55616760
   N 0.73369598 0.63191223 0.64757538
   N 0.66184235 0.63176727 0.71772766
   N 0.59408569 0.60866547 0.48510742
   N 0.57092285 0.67691040 0.71897888
   N 0.63922882 0.69951630 0.48535919
   N 0.66223907 0.67617798 0.48510742
   N 0.63843536 0.60881042 0.71768951
   N 0.57102966 0.63201904 0.48535919
   N 0.59427643 0.69992828 0.71897888
   N 0.73244476 0.69947052 0.57936859
   N 0.73369598 0.60856628 0.62451172
   N 0.57108307 0.53756714 0.57932281
   N 0.49988556 0.69986725 0.62376404
   N 0.66234589 0.77137756 0.57951355
   N 0.50017548 0.60872650 0.57966614
   N 0.57117462 0.77008820 0.62367249
   N 0.66188812 0.53775787 0.62447357
   N 0.71914673 0.64507294 0.52207184
   N 0.60742950 0.55107117 0.68142700
   N 0.51351929 0.66246033 0.52246857
   N 0.62492371 0.75672150 0.68132782
   N 0.71939087 0.66281891 0.68132782
   N 0.62507629 0.55187225 0.52217102
   N 0.51427460 0.64636230 0.68118286
   N 0.60872650 0.75692749 0.52257538
   N 0.53678894 0.75678253 0.59267426
   N 0.71908569 0.73368073 0.61012268
   N 0.69593811 0.55191040 0.59392548
   N 0.51422882 0.57456970 0.61037445
   N 0.53718567 0.55117798 0.61012268
   N 0.51343536 0.73382568 0.59267426
   N 0.69604492 0.75703430 0.61037445
   N 0.71929169 0.57497406 0.59396362
   N 0.60742950 0.57447052 0.70438385
   N 0.60868073 0.73358154 0.49951172
   N 0.69604492 0.66256714 0.70432281
   N 0.62482452 0.57486725 0.49876404
   N 0.53728485 0.64636230 0.70452881
   N 0.62517548 0.73372650 0.70468140
   N 0.69618988 0.64507294 0.49867249
   N 0.53687286 0.66271210 0.49947357
   N 0.34411621 0.77008820 0.64707184
   N 0.48241425 0.67607117 0.55641174
   N 0.38851929 0.53750610 0.64746857
   N 0.24990845 0.63172150 0.55632782
   N 0.34436798 0.53775787 0.55632782
   N 0.25006104 0.67687225 0.64717102
   N 0.38927460 0.77137756 0.55616760
   N 0.48366547 0.63191223 0.64757538
   N 0.41181946 0.63176727 0.71772766
   N 0.34407043 0.60866547 0.48510742
   N 0.32092285 0.67691040 0.71897888
   N 0.38921356 0.69951630 0.48535919
   N 0.41221619 0.67617798 0.48510742
   N 0.38842010 0.60881042 0.71768951
   N 0.32102966 0.63201904 0.48535919
   N 0.34427643 0.69992828 0.71897888
   N 0.48241425 0.69947052 0.57936859
   N 0.48366547 0.60856628 0.62451172
   N 0.32106781 0.53756714 0.57932281
   N 0.24985504 0.69986725 0.62376404
   N 0.41231537 0.77137756 0.57951355
   N 0.25016022 0.60872650 0.57966614
   N 0.32117462 0.77008820 0.62367249
   N 0.41187286 0.53775787 0.62447357
   N 0.46911621 0.64507294 0.52207184
   N 0.35741425 0.55107117 0.68142700
   N 0.26351166 0.66246033 0.52246857
   N 0.37492371 0.75672150 0.68132782
   N 0.46936798 0.66281891 0.68132782
   N 0.37507629 0.55187225 0.52217102
   N 0.26425934 0.64636230 0.68118286
   N 0.35872650 0.75692749 0.52257538
   N 0.28675842 0.75678253 0.59267426
   N 0.46907043 0.73368073 0.61012268
   N 0.44592285 0.55191040 0.59392548
   N 0.26421356 0.57456970 0.61037445
   N 0.28715515 0.55117798 0.61012268
   N 0.26340485 0.73382568 0.59267426
   N 0.44602966 0.75703430 0.61037445
   N 0.46927643 0.57497406 0.59396362
   N 0.35741425 0.57447052 0.70438385
   N 0.35866547 0.73358154 0.49951172
   N 0.44602966 0.66256714 0.70432281
   N 0.37482452 0.57486725 0.49876404
   N 0.28725433 0.64636230 0.70452881
   N 0.37517548 0.73372650 0.70468140
   N 0.44617462 0.64507294 0.49867249
   N 0.28685760 0.66271210 0.49947357
   N 0.59413147 0.52005768 0.64707184
   N 0.73244476 0.42605591 0.55641174
   N 0.63851929 0.28749084 0.64746857
   N 0.49992371 0.38170624 0.55632782
   N 0.59437561 0.28774261 0.55632782
   N 0.50007629 0.42685699 0.64717102
   N 0.63927460 0.52136230 0.55616760
   N 0.73369598 0.38191223 0.64757538
   N 0.66184235 0.38175201 0.71772766
   N 0.59408569 0.35865021 0.48510742
   N 0.57092285 0.42691040 0.71897888
   N 0.63922882 0.44951630 0.48535919
   N 0.66223907 0.42616272 0.48510742
   N 0.63843536 0.35880280 0.71768951
   N 0.57102966 0.38200378 0.48535919
   N 0.59427643 0.44991302 0.71897888
   N 0.73244476 0.44945526 0.57936859
   N 0.73369598 0.35855103 0.62451172
   N 0.57108307 0.28755188 0.57932281
   N 0.49988556 0.44985199 0.62376404
   N 0.66234589 0.52136230 0.57951355
   N 0.50017548 0.35869598 0.57966614
   N 0.57117462 0.52005768 0.62367249
   N 0.66188812 0.28774261 0.62447357
   N 0.71914673 0.39505768 0.52207184
   N 0.60742950 0.30104828 0.68142700
   N 0.51351929 0.41246033 0.52246857
   N 0.62492371 0.50670624 0.68132782
   N 0.71939087 0.41281891 0.68132782
   N 0.62507629 0.30185699 0.52217102
   N 0.51427460 0.39636230 0.68118286
   N 0.60872650 0.50691223 0.52257538
   N 0.53678894 0.50675201 0.59267426
   N 0.71908569 0.48366547 0.61012268
   N 0.69593811 0.30189514 0.59392548
   N 0.51422882 0.32454681 0.61037445
   N 0.53718567 0.30114746 0.61012268
   N 0.51343536 0.48381042 0.59267426
   N 0.69604492 0.50700378 0.61037445
   N 0.71929169 0.32495880 0.59396362
   N 0.60742950 0.32445526 0.70438385
   N 0.60868073 0.48356628 0.49951172
   N 0.69604492 0.41256714 0.70432281
   N 0.62482452 0.32485199 0.49876404
   N 0.53728485 0.39636230 0.70452881
   N 0.62517548 0.48371124 0.70468140
   N 0.69618988 0.39505768 0.49867249
   N 0.53687286 0.41271210 0.49947357
   N 0.34411621 0.52005768 0.64707184
   N 0.48241425 0.42605591 0.55641174
   N 0.38851929 0.28749084 0.64746857
   N 0.24990845 0.38170624 0.55632782
   N 0.34436798 0.28774261 0.55632782
   N 0.25006104 0.42685699 0.64717102
   N 0.38927460 0.52136230 0.55616760
   N 0.48366547 0.38191223 0.64757538
   N 0.41181946 0.38175201 0.71772766
   N 0.34407043 0.35865021 0.48510742
   N 0.32092285 0.42691040 0.71897888
   N 0.38921356 0.44951630 0.48535919
   N 0.41221619 0.42616272 0.48510742
   N 0.38842010 0.35880280 0.71768951
   N 0.32102966 0.38200378 0.48535919
   N 0.34427643 0.44991302 0.71897888
   N 0.48241425 0.44945526 0.57936859
   N 0.48366547 0.35855103 0.62451172
   N 0.32106781 0.28755188 0.57932281
   N 0.24985504 0.44985199 0.62376404
   N 0.41231537 0.52136230 0.57951355
   N 0.25016022 0.35869598 0.57966614
   N 0.32117462 0.52005768 0.62367249
   N 0.41187286 0.28774261 0.62447357
   N 0.46911621 0.39505768 0.52207184
   N 0.35741425 0.30104828 0.68142700
   N 0.26351166 0.41246033 0.52246857
   N 0.37492371 0.50670624 0.68132782
   N 0.46936798 0.41281891 0.68132782
   N 0.37507629 0.30185699 0.52217102
   N 0.26425934 0.39636230 0.68118286
   N 0.35872650 0.50691223 0.52257538
   N 0.28675842 0.50675201 0.59267426
   N 0.46907043 0.48366547 0.61012268
   N 0.44592285 0.30189514 0.59392548
   N 0.26421356 0.32454681 0.61037445
   N 0.28715515 0.30114746 0.61012268
   N 0.26340485 0.48381042 0.59267426
   N 0.44602966 0.50700378 0.61037445
   N 0.46927643 0.32495880 0.59396362
   N 0.35741425 0.32445526 0.70438385
   N 0.35866547 0.48356628 0.49951172
   N 0.44602966 0.41256714 0.70432281
   N 0.37482452 0.32485199 0.49876404
   N 0.28725433 0.39636230 0.70452881
   N 0.37517548 0.48371124 0.70468140
   N 0.44617462 0.39505768 0.49867249
   N 0.28685760 0.41271210 0.49947357
   N 0.73244476 0.67607117 0.30640411
   N 0.63851929 0.53750610 0.39745331
   N 0.49992371 0.63172150 0.30629730
   N 0.59437561 0.53775787 0.30629730
   N 0.50007629 0.67687225 0.39716339
   N 0.63927460 0.77137756 0.30615234
   N 0.73369598 0.63191223 0.39756012
   N 0.66184235 0.63176727 0.46772003
   N 0.59408569 0.60866547 0.23509216
   N 0.57092285 0.67691040 0.46896362
   N 0.63922882 0.69951630 0.23534393
   N 0.66223907 0.67617798 0.23509216
   N 0.63843536 0.60881042 0.46765900
   N 0.57102966 0.63201904 0.23534393
   N 0.59427643 0.69992828 0.46896362
   N 0.73244476 0.69947052 0.32935333
   N 0.73369598 0.60856628 0.37451172
   N 0.57108307 0.53756714 0.32930756
   N 0.49988556 0.69986725 0.37376404
   N 0.66234589 0.77137756 0.32950592
   N 0.50017548 0.60872650 0.32966614
   N 0.66188812 0.53775787 0.37445831
   N 0.71914673 0.64507294 0.27205658
   N 0.60742950 0.55107117 0.43141174
   N 0.51351929 0.66246033 0.27245331
   N 0.62492371 0.75672150 0.43131256
   N 0.71939087 0.66281891 0.43131256
   N 0.62507629 0.55187225 0.27214813
   N 0.51427460 0.64636230 0.43116760
   N 0.60872650 0.75692749 0.27254486
   N 0.53678894 0.75678253 0.34265900
   N 0.71908569 0.73368073 0.36010742
   N 0.69593811 0.55191040 0.34391022
   N 0.51422882 0.57456970 0.36035919
   N 0.53718567 0.55117798 0.36010742
   N 0.51343536 0.73382568 0.34265900
   N 0.69604492 0.75703430 0.36035919
   N 0.71929169 0.57497406 0.34396362
   N 0.60742950 0.57447052 0.45435333
   N 0.60868073 0.73358154 0.24949646
   N 0.69604492 0.66256714 0.45431519
   N 0.62482452 0.57486725 0.24874878
   N 0.53728485 0.64636230 0.45450592
   N 0.62517548 0.73372650 0.45466614
   N 0.69618988 0.64507294 0.24864960
   N 0.53687286 0.66271210 0.24945831
   N 0.34411621 0.77008820 0.39705658
   N 0.48241425 0.67607117 0.30640411
   N 0.38851929 0.53750610 0.39745331
   N 0.24990845 0.63172150 0.30629730
   N 0.34436798 0.53775787 0.30629730
   N 0.25006104 0.67687225 0.39716339
   N 0.38927460 0.77137756 0.30615234
   N 0.48366547 0.63191223 0.39756012
   N 0.41181946 0.63176727 0.46772003
   N 0.34407043 0.60866547 0.23509216
   N 0.32092285 0.67691040 0.46896362
   N 0.38921356 0.69951630 0.23534393
   N 0.41221619 0.67617798 0.23509216
   N 0.38842010 0.60881042 0.46765900
   N 0.32102966 0.63201904 0.23534393
   N 0.34427643 0.69992828 0.46896362
   N 0.48241425 0.69947052 0.32935333
   N 0.48366547 0.60856628 0.37451172
   N 0.32106781 0.53756714 0.32930756
   N 0.24985504 0.69986725 0.37376404
   N 0.41231537 0.77137756 0.32950592
   N 0.25016022 0.60872650 0.32966614
   N 0.32117462 0.77008820 0.37365723
   N 0.41187286 0.53775787 0.37445831
   N 0.46911621 0.64507294 0.27205658
   N 0.35741425 0.55107117 0.43141174
   N 0.26351166 0.66246033 0.27245331
   N 0.37492371 0.75672150 0.43131256
   N 0.46936798 0.66281891 0.43131256
   N 0.37507629 0.55187225 0.27214813
   N 0.26425934 0.64636230 0.43116760
   N 0.35872650 0.75692749 0.27254486
   N 0.28675842 0.75678253 0.34265900
   N 0.46907043 0.73368073 0.36010742
   N 0.44592285 0.55191040 0.34391022
   N 0.26421356 0.57456970 0.36035919
   N 0.28715515 0.55117798 0.36010742
   N 0.26340485 0.73382568 0.34265900
   N 0.44602966 0.75703430 0.36035919
   N 0.46927643 0.57497406 0.34396362
   N 0.35741425 0.57447052 0.45435333
   N 0.35866547 0.73358154 0.24949646
   N 0.44602966 0.66256714 0.45431519
   N 0.37482452 0.57486725 0.24874878
   N 0.28725433 0.64636230 0.45450592
   N 0.37517548 0.73372650 0.45466614
   N 0.44617462 0.64507294 0.24864960
   N 0.28685760 0.66271210 0.24945831
   N 0.59413147 0.52005768 0.39705658
   N 0.73244476 0.42605591 0.30640411
   N 0.63851929 0.28749084 0.39745331
   N 0.49992371 0.38170624 0.30629730
   N 0.59437561 0.28774261 0.30629730
   N 0.50007629 0.42685699 0.39716339
   N 0.63927460 0.52136230 0.30615234
   N 0.73369598 0.38191223 0.39756012
   N 0.66184235 0.38175201 0.46772003
   N 0.59408569 0.35865021 0.23509216
   N 0.57092285 0.42691040 0.46896362
   N 0.63922882 0.44951630 0.23534393
   N 0.66223907 0.42616272 0.23509216
   N 0.63843536 0.35880280 0.46765900
   N 0.57102966 0.38200378 0.23534393
   N 0.59427643 0.44991302 0.46896362
   N 0.73244476 0.44945526 0.32935333
   N 0.73369598 0.35855103 0.37451172
   N 0.57108307 0.28755188 0.32930756
   N 0.49988556 0.44985199 0.37376404
   N 0.66234589 0.52136230 0.32950592
   N 0.50017548 0.35869598 0.32966614
   N 0.57117462 0.52005768 0.37365723
   N 0.66188812 0.28774261 0.37445831
   N 0.71914673 0.39505768 0.27205658
   N 0.60742950 0.30104828 0.43141174
   N 0.51351929 0.41246033 0.27245331
   N 0.62492371 0.50670624 0.43131256
   N 0.71939087 0.41281891 0.43131256
   N 0.62507629 0.30185699 0.27214813
   N 0.51427460 0.39636230 0.43116760
   N 0.60872650 0.50691223 0.27254486
   N 0.53678894 0.50675201 0.34265900
   N 0.71908569 0.48366547 0.36010742
   N 0.69593811 0.30189514 0.34391022
   N 0.51422882 0.32454681 0.36035919
   N 0.53718567 0.30114746 0.36010742
   N 0.51343536 0.48381042 0.34265900
   N 0.69604492 0.50700378 0.36035919
   N 0.71929169 0.32495880 0.34396362
   N 0.60742950 0.32445526 0.45435333
   N 0.60868073 0.48356628 0.24949646
   N 0.69604492 0.41256714 0.45431519
   N 0.62482452 0.32485199 0.24874878
   N 0.53728485 0.39636230 0.45450592
   N 0.62517548 0.48371124 0.45466614
   N 0.69618988 0.39505768 0.24864960
   N 0.53687286 0.41271210 0.24945831
   C 0.33606720 0.28019714 0.38195801
   C 0.24255371 0.43435669 0.32135010
   C 0.39646912 0.52776337 0.38206482
   C 0.49012756 0.37389374 0.32170105
   C 0.33647919 0.52776337 0.32149506
   C 0.49012756 0.43446350 0.38170624
   C 0.39661407 0.28089905 0.32195282
   C 0.39672089 0.37370300 0.22779846
   C 0.33627319 0.37409973 0.47534943
   C 0.33666992 0.43425751 0.22850037
   C 0.39682007 0.43410492 0.47534943
   C 0.46106720 0.40521240 0.25700378
   C 0.36756897 0.30934143 0.44636536
   C 0.27145386 0.40276337 0.25704956
   C 0.36512756 0.49890900 0.44670105
   C 0.46147919 0.40276337 0.44651031
   C 0.36512756 0.30944824 0.25669861
   C 0.27155304 0.40591431 0.44695282
   C 0.36827850 0.49936676 0.25685883
   C 0.27170563 0.49876404 0.35281372
   C 0.46127319 0.49911499 0.35034943
   C 0.46171570 0.30925751 0.35356140
   C 0.27180481 0.30915070 0.35034943
   C 0.58608246 0.53021240 0.63197327
   C 0.49258423 0.68437195 0.57136536
   C 0.64648438 0.77777863 0.63206482
   C 0.74014282 0.62392426 0.57171631
   C 0.58647919 0.77777863 0.57151031
   C 0.74014282 0.68447876 0.63172150
   C 0.64662933 0.53091431 0.57196808
   C 0.49327850 0.62432098 0.63187408
   C 0.64673615 0.62371826 0.47781372
   C 0.58628845 0.62411499 0.72537994
   C 0.58668518 0.68427277 0.47851562
   C 0.64683533 0.68412018 0.72537994
   C 0.71109772 0.65522003 0.50701904
   C 0.61758423 0.55937195 0.69638062
   C 0.52148438 0.65276337 0.50706482
   C 0.61512756 0.74892426 0.69673157
   C 0.71149445 0.65276337 0.69652557
   C 0.61512756 0.55947876 0.50672150
   C 0.52158356 0.65591431 0.69698334
   C 0.61827850 0.74938202 0.50687408
   C 0.52173615 0.74877930 0.60282898
   C 0.71128845 0.74913025 0.60036469
   C 0.71173859 0.55927277 0.60357666
   C 0.52183533 0.55916595 0.60036469
   C 0.33606720 0.53021240 0.63197327
   C 0.24255371 0.68437195 0.57136536
   C 0.39646912 0.77777863 0.63206482
   C 0.49012756 0.62392426 0.57171631
   C 0.33647919 0.77777863 0.57151031
   C 0.49012756 0.68447876 0.63172150
   C 0.39661407 0.53091431 0.57196808
   C 0.24326324 0.62432098 0.63187408
   C 0.39672089 0.62371826 0.47781372
   C 0.33627319 0.62411499 0.72537994
   C 0.33666992 0.68427277 0.47851562
   C 0.39682007 0.68412018 0.72537994
   C 0.46106720 0.65522003 0.50701904
   C 0.36756897 0.55937195 0.69638062
   C 0.27145386 0.65276337 0.50706482
   C 0.36512756 0.74892426 0.69673157
   C 0.46147919 0.65276337 0.69652557
   C 0.36512756 0.55947876 0.50672150
   C 0.27155304 0.65591431 0.69698334
   C 0.36827850 0.74938202 0.50687408
   C 0.27170563 0.74877930 0.60282898
   C 0.46127319 0.74913025 0.60036469
   C 0.46171570 0.55927277 0.60357666
   C 0.27180481 0.55916595 0.60036469
   C 0.58608246 0.28019714 0.63197327
   C 0.49258423 0.43435669 0.57136536
   C 0.64648438 0.52776337 0.63206482
   C 0.74014282 0.37389374 0.57171631
   C 0.58647919 0.52776337 0.57151031
   C 0.74014282 0.43446350 0.63172150
   C 0.64662933 0.28089905 0.57196808
   C 0.49327850 0.37429047 0.63187408
   C 0.64673615 0.37370300 0.47781372
   C 0.58628845 0.37409973 0.72537994
   C 0.58668518 0.43425751 0.47851562
   C 0.64683533 0.43410492 0.72537994
   C 0.71109772 0.40521240 0.50701904
   C 0.61758423 0.30934143 0.69638062
   C 0.52148438 0.40276337 0.50706482
   C 0.61512756 0.49890900 0.69673157
   C 0.71149445 0.40276337 0.69652557
   C 0.61512756 0.30944824 0.50672150
   C 0.52158356 0.40591431 0.69698334
   C 0.61827850 0.49936676 0.50687408
   C 0.52173615 0.49876404 0.60282898
   C 0.71128845 0.49911499 0.60036469
   C 0.71173859 0.30925751 0.60357666
   C 0.52183533 0.30915070 0.60036469
   C 0.33606720 0.28019714 0.63197327
   C 0.24255371 0.43435669 0.57136536
   C 0.39646912 0.52776337 0.63206482
   C 0.49012756 0.37389374 0.57171631
   C 0.33647919 0.52776337 0.57151031
   C 0.49012756 0.43446350 0.63172150
   C 0.39661407 0.28089905 0.57196808
   C 0.24326324 0.37429047 0.63187408
   C 0.39672089 0.37370300 0.47781372
   C 0.33627319 0.37409973 0.72537994
   C 0.33666992 0.43425751 0.47851562
   C 0.39682007 0.43410492 0.72537994
   C 0.46106720 0.40521240 0.50701904
   C 0.36756897 0.30934143 0.69638062
   C 0.27145386 0.40276337 0.50706482
   C 0.36512756 0.49890900 0.69673157
   C 0.46147919 0.40276337 0.69652557
   C 0.36512756 0.30944824 0.50672150
   C 0.27155304 0.40591431 0.69698334
   C 0.36827850 0.49936676 0.50687408
   C 0.27170563 0.49876404 0.60282898
   C 0.46127319 0.49911499 0.60036469
   C 0.46171570 0.30925751 0.60357666
   C 0.27180481 0.30915070 0.60036469
   C 0.58608246 0.53021240 0.38195801
   C 0.49258423 0.68437195 0.32135010
   C 0.64648438 0.77777863 0.38206482
   C 0.74014282 0.62392426 0.32170105
   C 0.58647919 0.77777863 0.32149506
   C 0.74014282 0.68447876 0.38170624
   C 0.64662933 0.53091431 0.32195282
   C 0.49327850 0.62432098 0.38185883
   C 0.64673615 0.62371826 0.22779846
   C 0.58628845 0.62411499 0.47534943
   C 0.64683533 0.68412018 0.47534943
   C 0.71109772 0.65522003 0.25700378
   C 0.61758423 0.55937195 0.44636536
   C 0.52148438 0.65276337 0.25704956
   C 0.61512756 0.74892426 0.44670105
   C 0.71149445 0.65276337 0.44651031
   C 0.61512756 0.55947876 0.25669861
   C 0.52158356 0.65591431 0.44695282
   C 0.61827850 0.74938202 0.25685883
   C 0.52173615 0.74877930 0.35281372
   C 0.71128845 0.74913025 0.35034943
   C 0.71173859 0.55927277 0.35356140
   C 0.52183533 0.55916595 0.35034943
   C 0.33606720 0.53021240 0.38195801
   C 0.24255371 0.68437195 0.32135010
   C 0.39646912 0.77777863 0.38206482
   C 0.49012756 0.62392426 0.32170105
   C 0.33647919 0.77777863 0.32149506
   C 0.49012756 0.68447876 0.38170624
   C 0.39661407 0.53091431 0.32195282
   C 0.24326324 0.62432098 0.38185883
   C 0.39672089 0.62371826 0.22779846
   C 0.33627319 0.62411499 0.47534943
   C 0.33666992 0.68427277 0.22850037
   C 0.39682007 0.68412018 0.47534943
   C 0.46106720 0.65522003 0.25700378
   C 0.36756897 0.55937195 0.44636536
   C 0.27145386 0.65276337 0.25704956
   C 0.36512756 0.74892426 0.44670105
   C 0.46147919 0.65276337 0.44651031
   C 0.36512756 0.55947876 0.25669861
   C 0.27155304 0.65591431 0.44695282
   C 0.36827850 0.74938202 0.25685883
   C 0.27170563 0.74877930 0.35281372
   C 0.46127319 0.74913025 0.35034943
   C 0.46171570 0.55927277 0.35356140
   C 0.27180481 0.55916595 0.35034943
   C 0.58608246 0.28019714 0.38195801
   C 0.49258423 0.43435669 0.32135010
   C 0.64648438 0.52776337 0.38206482
   C 0.74014282 0.37389374 0.32170105
   C 0.58647919 0.52776337 0.32149506
   C 0.74014282 0.43446350 0.38170624
   C 0.64662933 0.28089905 0.32195282
   C 0.49327850 0.37429047 0.38185883
   C 0.64673615 0.37370300 0.22779846
   C 0.58628845 0.37409973 0.47534943
   C 0.58668518 0.43425751 0.22850037
   C 0.64683533 0.43410492 0.47534943
   C 0.71109772 0.40521240 0.25700378
   C 0.61758423 0.30934143 0.44636536
   C 0.52148438 0.40276337 0.25704956
   C 0.61512756 0.49890900 0.44670105
   C 0.71149445 0.40276337 0.44651031
   C 0.61512756 0.30944824 0.25669861
   C 0.52158356 0.40591431 0.44695282
   C 0.61827850 0.49936676 0.25685883
   C 0.52173615 0.49876404 0.35281372
   C 0.71128845 0.49911499 0.35034943
   C 0.71173859 0.30925751 0.35356140
   C 0.52183533 0.30915070 0.35034943
   C 0.34296417 0.29985046 0.37526703
   C 0.26221466 0.42766571 0.32826996
   C 0.38912964 0.50866699 0.37430573
   C 0.47081757 0.38125610 0.32906342
   C 0.34386444 0.50850677 0.32891083
   C 0.47102356 0.42670441 0.37436676
   C 0.38831329 0.29949951 0.33000183
   C 0.39002228 0.38060760 0.24745178
   C 0.34371948 0.38156128 0.45616913
   C 0.34477997 0.42595673 0.24714661
   C 0.38906860 0.42676544 0.45625305
   C 0.46796417 0.42491150 0.25029755
   C 0.38721466 0.30265045 0.45326996
   C 0.26411438 0.38360596 0.24929047
   C 0.34586334 0.50625610 0.45410156
   C 0.46886444 0.38350677 0.45391083
   C 0.34602356 0.30170441 0.24935150
   C 0.26331329 0.42451477 0.45500183
   C 0.38687134 0.50741577 0.24860382
   C 0.26500702 0.50560760 0.37251282
   C 0.46867371 0.50656128 0.33116913
   C 0.46971893 0.30095673 0.37211609
   C 0.26406860 0.30179596 0.33125305
   C 0.59297943 0.54986572 0.62526703
   C 0.51222992 0.67766571 0.57826996
   C 0.63912964 0.75868225 0.62432098
   C 0.72083282 0.63127136 0.57907867
   C 0.59387970 0.75853729 0.57891083
   C 0.72103882 0.67671967 0.62436676
   C 0.63832855 0.54951477 0.58001709
   C 0.51187134 0.63241577 0.62361908
   C 0.64002228 0.63062286 0.49746704
   C 0.59373474 0.63156128 0.70617676
   C 0.59477997 0.67597198 0.49717712
   C 0.63908386 0.67676544 0.70628357
   C 0.71799469 0.67492676 0.50032043
   C 0.63722992 0.55266571 0.70327759
   C 0.51412964 0.63362122 0.49932098
   C 0.59587860 0.75628662 0.70413208
   C 0.71889496 0.63352203 0.70392609
   C 0.59602356 0.55171967 0.49936676
   C 0.51332855 0.67451477 0.70503235
   C 0.63687134 0.75743103 0.49861908
   C 0.51502228 0.75563812 0.62251282
   C 0.71868896 0.75657654 0.58116913
   C 0.71974945 0.55097198 0.62211609
   C 0.51408386 0.55182648 0.58126831
   C 0.34296417 0.54986572 0.62526703
   C 0.26221466 0.67766571 0.57826996
   C 0.38912964 0.75868225 0.62432098
   C 0.47081757 0.63127136 0.57907867
   C 0.34386444 0.75853729 0.57891083
   C 0.47102356 0.67671967 0.62436676
   C 0.38831329 0.54951477 0.58001709
   C 0.26186371 0.63241577 0.62361908
   C 0.39002228 0.63062286 0.49746704
   C 0.34371948 0.63156128 0.70617676
   C 0.34477997 0.67597198 0.49717712
   C 0.38906860 0.67676544 0.70628357
   C 0.46796417 0.67492676 0.50032043
   C 0.38721466 0.55266571 0.70327759
   C 0.26411438 0.63362122 0.49932098
   C 0.34586334 0.75628662 0.70413208
   C 0.46886444 0.63352203 0.70392609
   C 0.34602356 0.55171967 0.49936676
   C 0.26331329 0.67451477 0.70503235
   C 0.38687134 0.75743103 0.49861908
   C 0.26500702 0.75563812 0.62251282
   C 0.46867371 0.75657654 0.58116913
   C 0.46971893 0.55097198 0.62211609
   C 0.26406860 0.55182648 0.58126831
   C 0.59297943 0.29985046 0.62526703
   C 0.51222992 0.42766571 0.57826996
   C 0.63912964 0.50866699 0.62432098
   C 0.72083282 0.38125610 0.57907867
   C 0.59387970 0.50850677 0.57891083
   C 0.72103882 0.42670441 0.62436676
   C 0.63832855 0.29949951 0.58001709
   C 0.51187134 0.38241577 0.62361908
   C 0.64002228 0.38060760 0.49746704
   C 0.59373474 0.38156128 0.70617676
   C 0.59477997 0.42595673 0.49717712
   C 0.63908386 0.42676544 0.70628357
   C 0.71799469 0.42491150 0.50032043
   C 0.63722992 0.30265045 0.70327759
   C 0.51412964 0.38360596 0.49932098
   C 0.59587860 0.50625610 0.70413208
   C 0.71889496 0.38350677 0.70392609
   C 0.59602356 0.30170441 0.49936676
   C 0.51332855 0.42451477 0.70503235
   C 0.63687134 0.50741577 0.49861908
   C 0.51502228 0.50560760 0.62251282
   C 0.71868896 0.50656128 0.58116913
   C 0.71974945 0.30095673 0.62211609
   C 0.51408386 0.30179596 0.58126831
   C 0.34296417 0.29985046 0.62526703
   C 0.26221466 0.42766571 0.57826996
   C 0.38912964 0.50866699 0.62432098
   C 0.47081757 0.38125610 0.57907867
   C 0.34386444 0.50850677 0.57891083
   C 0.47102356 0.42670441 0.62436676
   C 0.38831329 0.29949951 0.58001709
   C 0.26186371 0.38241577 0.62361908
   C 0.39002228 0.38060760 0.49746704
   C 0.34371948 0.38156128 0.70617676
   C 0.34477997 0.42595673 0.49717712
   C 0.38906860 0.42676544 0.70628357
   C 0.46796417 0.42491150 0.50032043
   C 0.38721466 0.30265045 0.70327759
   C 0.26411438 0.38360596 0.49932098
   C 0.34586334 0.50625610 0.70413208
   C 0.46886444 0.38350677 0.70392609
   C 0.34602356 0.30170441 0.49936676
   C 0.26331329 0.42451477 0.70503235
   C 0.38687134 0.50741577 0.49861908
   C 0.26500702 0.50560760 0.62251282
   C 0.46867371 0.50656128 0.58116913
   C 0.46971893 0.30095673 0.62211609
   C 0.26406860 0.30179596 0.58126831
   C 0.59297943 0.54986572 0.37526703
   C 0.51222992 0.67766571 0.32826996
   C 0.63912964 0.75868225 0.37430573
   C 0.72083282 0.63127136 0.32906342
   C 0.59387970 0.75853729 0.32891083
   C 0.72103882 0.67671967 0.37436676
   C 0.63832855 0.54951477 0.33000183
   C 0.51187134 0.63241577 0.37361908
   C 0.64002228 0.63062286 0.24745178
   C 0.59373474 0.63156128 0.45616913
   C 0.63908386 0.67676544 0.45625305
   C 0.71799469 0.67492676 0.25029755
   C 0.63722992 0.55266571 0.45326996
   C 0.51412964 0.63362122 0.24929047
   C 0.59587860 0.75628662 0.45410156
   C 0.71889496 0.63352203 0.45391083
   C 0.59602356 0.55171967 0.24935150
   C 0.51332855 0.67451477 0.45500183
   C 0.63687134 0.75743103 0.24860382
   C 0.51502228 0.75563812 0.37251282
   C 0.71868896 0.75657654 0.33116913
   C 0.71974945 0.55097198 0.37211609
   C 0.51408386 0.55182648 0.33125305
   C 0.34296417 0.54986572 0.37526703
   C 0.26221466 0.67766571 0.32826996
   C 0.38912964 0.75868225 0.37430573
   C 0.47081757 0.63127136 0.32906342
   C 0.34386444 0.75853729 0.32891083
   C 0.47102356 0.67671967 0.37436676
   C 0.38831329 0.54951477 0.33000183
   C 0.26186371 0.63241577 0.37361908
   C 0.39002228 0.63062286 0.24745178
   C 0.34371948 0.63156128 0.45616913
   C 0.34477997 0.67597198 0.24714661
   C 0.38906860 0.67676544 0.45625305
   C 0.46796417 0.67492676 0.25029755
   C 0.38721466 0.55266571 0.45326996
   C 0.26411438 0.63362122 0.24929047
   C 0.34586334 0.75628662 0.45410156
   C 0.46886444 0.63352203 0.45391083
   C 0.34602356 0.55171967 0.24935150
   C 0.26331329 0.67451477 0.45500183
   C 0.38687134 0.75743103 0.24860382
   C 0.26500702 0.75563812 0.37251282
   C 0.46867371 0.75657654 0.33116913
   C 0.46971893 0.55097198 0.37211609
   C 0.26406860 0.55182648 0.33125305
   C 0.59297943 0.29985046 0.37526703
   C 0.51222992 0.42766571 0.32826996
   C 0.63912964 0.50866699 0.37430573
   C 0.72083282 0.38125610 0.32906342
   C 0.59387970 0.50850677 0.32891083
   C 0.72103882 0.42670441 0.37436676
   C 0.63832855 0.29949951 0.33000183
   C 0.51187134 0.38241577 0.37361908
   C 0.64002228 0.38060760 0.24745178
   C 0.59373474 0.38156128 0.45616913
   C 0.59477997 0.42595673 0.24714661
   C 0.63908386 0.42676544 0.45625305
   C 0.71799469 0.42491150 0.25029755
   C 0.63722992 0.30265045 0.45326996
   C 0.51412964 0.38360596 0.24929047
   C 0.59587860 0.50625610 0.45410156
   C 0.71889496 0.38350677 0.45391083
   C 0.59602356 0.30170441 0.24935150
   C 0.51332855 0.42451477 0.45500183
   C 0.63687134 0.50741577 0.24860382
   C 0.51502228 0.50560760 0.37251282
   C 0.71868896 0.50656128 0.33116913
   C 0.71974945 0.30095673 0.37211609
   C 0.51408386 0.30179596 0.33125305
   H 0.60993195 0.63227081 0.20610809
   H 0.58927155 0.62176514 0.19405365
   H 0.58797455 0.64642334 0.20294189
   H 0.62292480 0.67811584 0.20565033
   H 0.64517212 0.68537140 0.19395447
   H 0.64302826 0.66127014 0.20389557
   H 0.35991669 0.63227081 0.20610809
   H 0.33927155 0.62176514 0.19405365
   H 0.33796692 0.64642334 0.20294189
   H 0.37292480 0.67811584 0.20565033
   H 0.39517212 0.68537140 0.19395447
   H 0.39302826 0.66127014 0.20389557
   H 0.60993195 0.38225555 0.20610809
   H 0.58927155 0.37174988 0.19405365
   H 0.58797455 0.39640808 0.20294189
   H 0.62292480 0.42810822 0.20565033
   H 0.64517212 0.43535614 0.19395447
   H 0.64302826 0.41125488 0.20389557
   H 0.35991669 0.38225555 0.20610809
   H 0.33927155 0.37174988 0.19405365
   H 0.33796692 0.39640808 0.20294189
   H 0.37292480 0.42810822 0.20565033
   H 0.39517212 0.43535614 0.19395447
   H 0.39302826 0.41125488 0.20389557
   C 0.66309357 0.62157440 0.20010376
   C 0.64862823 0.60736847 0.20004272
   C 0.41306305 0.62157440 0.20010376
   C 0.31832123 0.68846130 0.20229340
   C 0.39862061 0.60736847 0.20004272
   C 0.33277130 0.70265961 0.20229340
   C 0.66309357 0.37155914 0.20010376
   C 0.56833649 0.43846130 0.20229340
   C 0.64862823 0.35736084 0.20004272
   C 0.58278656 0.45265961 0.20229340
   C 0.41306305 0.37155914 0.20010376
   C 0.31832123 0.43846130 0.20229340
   C 0.39862061 0.35736084 0.20004272
   C 0.33277130 0.45265961 0.20229340
   H 0.67408752 0.62526703 0.18904877
   H 0.64477539 0.59642792 0.18899536
   H 0.42407227 0.62526703 0.18904877
   H 0.30650330 0.68562317 0.19190979
   H 0.39477539 0.59642792 0.18899536
   H 0.33581543 0.71446228 0.19190979
   H 0.67408752 0.37525177 0.18904877
   H 0.55653381 0.43560791 0.19190979
   H 0.64477539 0.34639740 0.18899536
   H 0.58583069 0.46446228 0.19190979
   H 0.42407227 0.37525177 0.18904877
   H 0.30650330 0.43560791 0.19190979
   H 0.39477539 0.34639740 0.18899536
   H 0.33581543 0.46446228 0.19190979
   N 0.66184235 0.63176727 0.21770477
   N 0.63843536 0.60881042 0.21764374
   N 0.41181946 0.63176727 0.21770477
   N 0.32092285 0.67691040 0.21895599
   N 0.38842010 0.60881042 0.21764374
   N 0.34427643 0.69992828 0.21895599
   N 0.66184235 0.38175201 0.21770477
   N 0.57092285 0.42691040 0.21895599
   N 0.63843536 0.35880280 0.21764374
   N 0.59427643 0.44991302 0.21895599
   N 0.41181946 0.38175201 0.21770477
   N 0.32092285 0.42691040 0.21895599
   N 0.38842010 0.35880280 0.21764374
   N 0.34427643 0.44991302 0.21895599
   C 0.58628845 0.62411499 0.22534943
   C 0.64683533 0.68412018 0.22534943
   C 0.33627319 0.62411499 0.22534943
   C 0.39682007 0.68412018 0.22534943
   C 0.58628845 0.37409973 0.22534943
   C 0.64683533 0.43410492 0.22534943
   C 0.33627319 0.37409973 0.22534943
   C 0.39682007 0.43410492 0.22534943
   C 0.59373474 0.63156128 0.20615387
   C 0.63908386 0.67676544 0.20625305
   C 0.34371948 0.63156128 0.20615387
   C 0.38906860 0.67676544 0.20625305
   C 0.59373474 0.38156128 0.20615387
   C 0.63908386 0.42676544 0.20625305
   C 0.34371948 0.38156128 0.20615387
   C 0.38906860 0.42676544 0.20625305
  Zn 0.61612701 0.27885437 0.66432953
  Zn 0.55403137 0.27875519 0.60151672
  Zn 0.67904663 0.27944183 0.60216522
  Zn 0.36612701 0.27885437 0.66432953
  Zn 0.30401611 0.27875519 0.60151672
  Zn 0.42901611 0.27944183 0.60216522
  Zn 0.61677551 0.27954865 0.53927612
  Zn 0.36677551 0.27954865 0.53927612
  Zn 0.61612701 0.27885437 0.41431427
  Zn 0.55403137 0.27875519 0.35151672
  Zn 0.67904663 0.27944183 0.35216522
  Zn 0.36612701 0.27885437 0.41431427
  Zn 0.30401611 0.27875519 0.35151672
  Zn 0.42901611 0.27944183 0.35216522
   H 0.62352753 0.25644684 0.62801361
   H 0.64752960 0.24624634 0.63062286
   H 0.64073181 0.25790405 0.60822296
   H 0.59452820 0.25844574 0.59511566
   H 0.58403778 0.24645233 0.57442474
   H 0.60868073 0.25529480 0.57317352
   H 0.59577942 0.27245331 0.70482635
   H 0.58383179 0.25179291 0.69422913
   H 0.59262848 0.25050354 0.71892548
   H 0.73488617 0.25725555 0.58112335
   H 0.71428680 0.24670410 0.56906891
   H 0.71293640 0.27134705 0.57797241
   H 0.50007629 0.25025177 0.62582397
   H 0.52498627 0.25035095 0.63417053
   H 0.51493835 0.27180481 0.62317657
   H 0.63647461 0.25740051 0.48236084
   H 0.64952850 0.24835205 0.50307465
   H 0.63948059 0.27254486 0.50372314
   H 0.37351227 0.25644684 0.62801361
   H 0.39751434 0.24624634 0.63062286
   H 0.39071655 0.25790405 0.60822296
   H 0.34452820 0.25844574 0.59511566
   H 0.33402252 0.24645233 0.57442474
   H 0.35866547 0.25529480 0.57317352
   H 0.34577942 0.27245331 0.70482635
   H 0.33381653 0.25179291 0.69422913
   H 0.34261322 0.25050354 0.71892548
   H 0.48487091 0.25725555 0.58112335
   H 0.46427155 0.24670410 0.56906891
   H 0.46292114 0.27134705 0.57797241
   H 0.25006104 0.25025177 0.62582397
   H 0.27495575 0.25035095 0.63417053
   H 0.26490784 0.27180481 0.62317657
   H 0.38647461 0.25740051 0.48236084
   H 0.39951324 0.24835205 0.50307465
   H 0.38946533 0.27254486 0.50372314
   H 0.62352753 0.25644684 0.37801361
   H 0.64752960 0.24624634 0.38060760
   H 0.64073181 0.25790405 0.35820770
   H 0.59452820 0.25844574 0.34511566
   H 0.58403778 0.24645233 0.32440948
   H 0.60868073 0.25529480 0.32315826
   H 0.59577942 0.27245331 0.45481110
   H 0.58383179 0.25179291 0.44421387
   H 0.59262848 0.25050354 0.46891022
   H 0.73488617 0.25725555 0.33110809
   H 0.71428680 0.24670410 0.31905365
   H 0.71293640 0.27134705 0.32795715
   H 0.50007629 0.25025177 0.37580872
   H 0.52498627 0.25035095 0.38417053
   H 0.51493835 0.27180481 0.37316132
   H 0.37351227 0.25644684 0.37801361
   H 0.39751434 0.24624634 0.38060760
   H 0.39071655 0.25790405 0.35820770
   H 0.34452820 0.25844574 0.34511566
   H 0.33402252 0.24645233 0.32440948
   H 0.35866547 0.25529480 0.32315826
   H 0.34577942 0.27245331 0.45481110
   H 0.33381653 0.25179291 0.44421387
   H 0.34261322 0.25050354 0.46891022
   H 0.48487091 0.25725555 0.33110809
   H 0.46427155 0.24670410 0.31905365
   H 0.46292114 0.27134705 0.32795715
   H 0.25006104 0.25025177 0.37580872
   H 0.27495575 0.25035095 0.38417053
   H 0.26490784 0.27180481 0.37316132
   H 0.38647461 0.25740051 0.23236084
   H 0.39951324 0.24835205 0.25304413
   H 0.38946533 0.27254486 0.25369263
   C 0.58393097 0.25245667 0.64832306
   C 0.65082550 0.25469208 0.55357361
   C 0.66503906 0.25475311 0.56802368
   C 0.56973267 0.25245667 0.63387299
   C 0.64218903 0.24599457 0.67942810
   C 0.59208679 0.24539185 0.52526855
   C 0.53807831 0.24655914 0.57507324
   C 0.70834351 0.23169708 0.62737274
   C 0.52362823 0.23236084 0.57507324
   C 0.69414520 0.24610138 0.62751770
   C 0.59208679 0.23100281 0.51106262
   C 0.64233398 0.23179626 0.69383240
   C 0.33391571 0.25245667 0.64832306
   C 0.40082550 0.25469208 0.55357361
   C 0.41502380 0.25475311 0.56802368
   C 0.31971741 0.25245667 0.63387299
   C 0.39217377 0.24599457 0.67942810
   C 0.34207153 0.24539185 0.52526855
   C 0.28806305 0.24655914 0.57507324
   C 0.45831299 0.23169708 0.62737274
   C 0.27362061 0.23236084 0.57507324
   C 0.44411469 0.24610138 0.62751770
   C 0.34207153 0.23100281 0.51106262
   C 0.39231873 0.23179626 0.69383240
   C 0.58393097 0.25245667 0.39830780
   C 0.65082550 0.25469208 0.30354309
   C 0.66503906 0.25475311 0.31799316
   C 0.56973267 0.25245667 0.38385773
   C 0.64218903 0.24599457 0.42941284
   C 0.53807831 0.24655914 0.32505798
   C 0.70834351 0.23169708 0.37735748
   C 0.52362823 0.23236084 0.32505798
   C 0.69414520 0.24610138 0.37751770
   C 0.64233398 0.23179626 0.44380188
   C 0.33391571 0.25245667 0.39830780
   C 0.40082550 0.25469208 0.30354309
   C 0.41502380 0.25475311 0.31799316
   C 0.31971741 0.25245667 0.38385773
   C 0.39217377 0.24599457 0.42941284
   C 0.34207153 0.24539185 0.27525330
   C 0.28806305 0.24655914 0.32505798
   C 0.45831299 0.23169708 0.37735748
   C 0.27362061 0.23236084 0.32505798
   C 0.44411469 0.24610138 0.37751770
   C 0.34207153 0.23100281 0.26104736
   C 0.39231873 0.23179626 0.44380188
   H 0.58762360 0.24140930 0.65931702
   H 0.64798737 0.24430847 0.54171753
   H 0.67687988 0.24434662 0.57102966
   H 0.55878448 0.24140930 0.62997437
   H 0.65288544 0.24939728 0.66798401
   H 0.58168030 0.24845123 0.53706360
   H 0.54907227 0.25025177 0.56406403
   H 0.71173859 0.22024536 0.63806915
   H 0.51977539 0.22139740 0.56402588
   H 0.68284607 0.24954224 0.63837433
   H 0.58163452 0.21914673 0.50822449
   H 0.65317535 0.22055817 0.69728088
   H 0.33762360 0.24140930 0.65931702
   H 0.39797211 0.24430847 0.54171753
   H 0.42687225 0.24434662 0.57102966
   H 0.30875397 0.24140930 0.62997437
   H 0.40287018 0.24939728 0.66798401
   H 0.33166504 0.24845123 0.53706360
   H 0.29905701 0.25025177 0.56406403
   H 0.46171570 0.22024536 0.63806915
   H 0.26976013 0.22139740 0.56402588
   H 0.43281555 0.24954224 0.63837433
   H 0.33161926 0.21914673 0.50822449
   H 0.40316010 0.22055817 0.69728088
   H 0.58762360 0.24140930 0.40931702
   H 0.64798737 0.24430847 0.29170227
   H 0.67687988 0.24434662 0.32099915
   H 0.55878448 0.24140930 0.37995911
   H 0.65288544 0.24939728 0.41796875
   H 0.54907227 0.25025177 0.31404877
   H 0.71173859 0.22024536 0.38806915
   H 0.51977539 0.22139740 0.31399536
   H 0.68284607 0.24954224 0.38835907
   H 0.65317535 0.22055817 0.44726562
   H 0.33762360 0.24140930 0.40931702
   H 0.39797211 0.24430847 0.29170227
   H 0.42687225 0.24434662 0.32099915
   H 0.30875397 0.24140930 0.37995911
   H 0.40287018 0.24939728 0.41796875
   H 0.33166504 0.24845123 0.28704834
   H 0.29905701 0.25025177 0.31404877
   H 0.46171570 0.22024536 0.38806915
   H 0.26976013 0.22139740 0.31399536
   H 0.43281555 0.24954224 0.38835907
   H 0.33161926 0.21914673 0.25819397
   H 0.40316010 0.22055817 0.44726562
   N 0.59413147 0.27005768 0.64707184
   N 0.63927460 0.27134705 0.55616760
   N 0.66234589 0.27134705 0.57951355
   N 0.57117462 0.27005768 0.62367249
   N 0.62492371 0.25669861 0.68132782
   N 0.60872650 0.25690460 0.52257538
   N 0.53678894 0.25675201 0.59267426
   N 0.71908569 0.23365021 0.61012268
   N 0.51343536 0.23380280 0.59267426
   N 0.69604492 0.25700378 0.61037445
   N 0.60868073 0.23355103 0.49951172
   N 0.62517548 0.23369598 0.70468140
   N 0.34411621 0.27005768 0.64707184
   N 0.38927460 0.27134705 0.55616760
   N 0.41231537 0.27134705 0.57951355
   N 0.32117462 0.27005768 0.62367249
   N 0.37492371 0.25669861 0.68132782
   N 0.35872650 0.25690460 0.52257538
   N 0.28675842 0.25675201 0.59267426
   N 0.46907043 0.23365021 0.61012268
   N 0.26340485 0.23380280 0.59267426
   N 0.44602966 0.25700378 0.61037445
   N 0.35866547 0.23355103 0.49951172
   N 0.37517548 0.23369598 0.70468140
   N 0.59413147 0.27005768 0.39705658
   N 0.63927460 0.27134705 0.30615234
   N 0.66234589 0.27134705 0.32950592
   N 0.57117462 0.27005768 0.37365723
   N 0.62492371 0.25669861 0.43131256
   N 0.53678894 0.25675201 0.34265900
   N 0.71908569 0.23365021 0.36010742
   N 0.51343536 0.23380280 0.34265900
   N 0.69604492 0.25700378 0.36035919
   N 0.62517548 0.23369598 0.45466614
   N 0.34411621 0.27005768 0.39705658
   N 0.38927460 0.27134705 0.30615234
   N 0.41231537 0.27134705 0.32950592
   N 0.32117462 0.27005768 0.37365723
   N 0.37492371 0.25669861 0.43131256
   N 0.35872650 0.25690460 0.27254486
   N 0.28675842 0.25675201 0.34265900
   N 0.46907043 0.23365021 0.36010742
   N 0.26340485 0.23380280 0.34265900
   N 0.44602966 0.25700378 0.36035919
   N 0.35866547 0.23355103 0.24949646
   N 0.37517548 0.23369598 0.45466614
   C 0.64648438 0.27774811 0.63206482
   C 0.58647919 0.27774811 0.57151031
   C 0.61512756 0.24889374 0.69673157
   C 0.61827850 0.24935150 0.50687408
   C 0.52173615 0.24874878 0.60282898
   C 0.71128845 0.24909973 0.60036469
   C 0.39646912 0.27774811 0.63206482
   C 0.33647919 0.27774811 0.57151031
   C 0.36512756 0.24889374 0.69673157
   C 0.36827850 0.24935150 0.50687408
   C 0.27170563 0.24874878 0.60282898
   C 0.46127319 0.24909973 0.60036469
   C 0.64648438 0.27774811 0.38206482
   C 0.58647919 0.27774811 0.32149506
   C 0.61512756 0.24889374 0.44670105
   C 0.52173615 0.24874878 0.35281372
   C 0.71128845 0.24909973 0.35034943
   C 0.39646912 0.27774811 0.38206482
   C 0.33647919 0.27774811 0.32149506
   C 0.36512756 0.24889374 0.44670105
   C 0.36827850 0.24935150 0.25685883
   C 0.27170563 0.24874878 0.35281372
   C 0.46127319 0.24909973 0.35034943
   C 0.63912964 0.25865173 0.62432098
   C 0.59387970 0.25850677 0.57891083
   C 0.59587860 0.25625610 0.70413208
   C 0.63687134 0.25740051 0.49861908
   C 0.51502228 0.25560760 0.62251282
   C 0.71868896 0.25654602 0.58116913
   C 0.38912964 0.25865173 0.62432098
   C 0.34386444 0.25850677 0.57891083
   C 0.34586334 0.25625610 0.70413208
   C 0.38687134 0.25740051 0.49861908
   C 0.26500702 0.25560760 0.62251282
   C 0.46867371 0.25654602 0.58116913
   C 0.63912964 0.25865173 0.37430573
   C 0.59387970 0.25850677 0.32891083
   C 0.59587860 0.25625610 0.45410156
   C 0.51502228 0.25560760 0.37251282
   C 0.71868896 0.25654602 0.33116913
   C 0.38912964 0.25865173 0.37430573
   C 0.34386444 0.25850677 0.32891083
   C 0.34586334 0.25625610 0.45410156
   C 0.38687134 0.25740051 0.24860382
   C 0.26500702 0.25560760 0.37251282
   C 0.46867371 0.25654602 0.33116913
   H 0.75009155 0.25025177 0.62582397
   H 0.77498627 0.25035095 0.63417053
   H 0.76493835 0.27180481 0.62317657
   H 0.75009155 0.25025177 0.37580872
   H 0.77498627 0.25035095 0.38417053
   H 0.76493835 0.27180481 0.37316132
   C 0.78809357 0.24655914 0.57507324
   C 0.77364349 0.23236084 0.57507324
   C 0.78809357 0.24655914 0.32505798
   C 0.77364349 0.23236084 0.32505798
   H 0.79908752 0.25025177 0.56406403
   H 0.76979065 0.22139740 0.56402588
   H 0.79908752 0.25025177 0.31404877
   H 0.76979065 0.22139740 0.31399536
   N 0.78678894 0.25675201 0.59267426
   N 0.76343536 0.23380280 0.59267426
   N 0.78678894 0.25675201 0.34265900
   N 0.76343536 0.23380280 0.34265900
   C 0.77173615 0.24874878 0.60282898
   C 0.77173615 0.24874878 0.35281372
   C 0.76503754 0.25560760 0.62251282
   C 0.76503754 0.25560760 0.37251282
  Zn 0.24111176 0.65386963 0.53931427
  Zn 0.24176025 0.65457916 0.66427612
  Zn 0.24125671 0.71671295 0.60137177
  Zn 0.24190521 0.59167480 0.60207367
  Zn 0.24111176 0.40385437 0.53931427
  Zn 0.24176025 0.40456390 0.66427612
  Zn 0.24125671 0.46671295 0.60137177
  Zn 0.24190521 0.34165955 0.60207367
  Zn 0.24111176 0.65386963 0.28929901
  Zn 0.24176025 0.65457916 0.41426086
  Zn 0.24125671 0.71671295 0.35135651
  Zn 0.24190521 0.59167480 0.35205841
  Zn 0.24111176 0.40385437 0.28929901
  Zn 0.24176025 0.40456390 0.41426086
  Zn 0.24125671 0.46671295 0.35135651
  Zn 0.24190521 0.34165955 0.35205841
   H 0.22076416 0.64742279 0.57976532
   H 0.20881653 0.62682343 0.56917572
   H 0.21755219 0.62547302 0.59386444
   H 0.21865845 0.68066406 0.60881042
   H 0.20866394 0.68276978 0.63291931
   H 0.22040558 0.66056824 0.62571716
   H 0.22076416 0.39740753 0.57976532
   H 0.20881653 0.37679291 0.56917572
   H 0.21755219 0.37545776 0.59386444
   H 0.21865845 0.43066406 0.60881042
   H 0.20866394 0.43275452 0.63291931
   H 0.22040558 0.41056824 0.62571716
   H 0.22076416 0.64742279 0.32975006
   H 0.20881653 0.62682343 0.31914520
   H 0.21755219 0.62547302 0.34386444
   H 0.21865845 0.68066406 0.35881042
   H 0.20866394 0.68276978 0.38291931
   H 0.22040558 0.66056824 0.37570953
   H 0.22076416 0.39740753 0.32975006
   H 0.20881653 0.37679291 0.31914520
   H 0.21755219 0.37545776 0.34386444
   H 0.21865845 0.43066406 0.35881042
   H 0.20866394 0.43275452 0.38291931
   H 0.22040558 0.41056824 0.37570953
   C 0.21480560 0.68627167 0.55496979
   C 0.21705627 0.62042236 0.65026855
   C 0.21480560 0.70072174 0.56917572
   C 0.21705627 0.60597229 0.63606262
   C 0.21480560 0.43625641 0.55496979
   C 0.21705627 0.37039185 0.65026855
   C 0.21480560 0.45070648 0.56917572
   C 0.21705627 0.35594177 0.63606262
   C 0.21480560 0.68627167 0.30494690
   C 0.21705627 0.62042236 0.40026855
   C 0.21480560 0.70072174 0.31914520
   C 0.21705627 0.60597229 0.38606262
   C 0.21480560 0.43625641 0.30494690
   C 0.21480560 0.45070648 0.31914520
   H 0.20376587 0.68237305 0.54402924
   H 0.20666504 0.62346649 0.66206360
   H 0.20376587 0.71171570 0.57282257
   H 0.20666504 0.59416962 0.63322449
   H 0.20376587 0.43235779 0.54402924
   H 0.20666504 0.37345123 0.66206360
   H 0.20376587 0.46171570 0.57282257
   H 0.20666504 0.34414673 0.63322449
   H 0.20376587 0.68237305 0.29399872
   H 0.20666504 0.62346649 0.41206360
   H 0.20376587 0.71171570 0.32280731
   H 0.20666504 0.59416962 0.38320923
   H 0.20376587 0.43235779 0.29399872
   H 0.20376587 0.46171570 0.32280731
   N 0.23241425 0.67607117 0.55641174
   N 0.23366547 0.63191223 0.64757538
   N 0.23241425 0.69947052 0.57936859
   N 0.23366547 0.60856628 0.62451172
   N 0.23241425 0.42605591 0.55641174
   N 0.23366547 0.38191223 0.64757538
   N 0.23241425 0.44945526 0.57936859
   N 0.23366547 0.35855103 0.62451172
   N 0.23241425 0.67607117 0.30640411
   N 0.23366547 0.63191223 0.39756012
   N 0.23241425 0.69947052 0.32935333
   N 0.23366547 0.60856628 0.37451172
   N 0.23241425 0.42605591 0.30640411
   N 0.23241425 0.44945526 0.32935333
   C 0.24011230 0.62392426 0.57171631
   C 0.24011230 0.68447876 0.63172150
   C 0.24011230 0.37389374 0.57171631
   C 0.24011230 0.43446350 0.63172150
   C 0.24011230 0.62392426 0.32170105
   C 0.24011230 0.68447876 0.38170624
   C 0.24011230 0.37389374 0.32170105
   C 0.24011230 0.43446350 0.38170624
   C 0.22080994 0.63127136 0.57907867
   C 0.22101593 0.67671967 0.62436676
   C 0.22080994 0.38125610 0.57907867
   C 0.22101593 0.42670441 0.62436676
   C 0.22080994 0.63127136 0.32906342
   C 0.22101593 0.67671967 0.37436676
   C 0.22080994 0.38125610 0.32906342
   C 0.22101593 0.42670441 0.37436676
   H 0.76454163 0.39756012 0.37870789
   H 0.77458954 0.37329102 0.37805939
   H 0.76143646 0.38241577 0.35741425
   H 0.76293182 0.42760468 0.34446716
   H 0.77389526 0.43756866 0.32291412
   H 0.76554108 0.41271210 0.32291412
   H 0.74848175 0.38156128 0.25289917
   H 0.77239227 0.37124634 0.25579834
   H 0.76589203 0.38281250 0.23325348
   H 0.74794006 0.30310822 0.33066559
   H 0.77014160 0.31040192 0.31889343
   H 0.76808167 0.28625488 0.32891083
   H 0.75009155 0.50026703 0.37580872
   H 0.77498627 0.50035095 0.38417053
   H 0.76493835 0.52180481 0.37316132
   H 0.76454163 0.64757538 0.62872314
   H 0.77458954 0.62332153 0.62807465
   H 0.76143646 0.63241577 0.60741425
   H 0.76293182 0.67761993 0.59446716
   H 0.77389526 0.68756866 0.57292175
   H 0.76554108 0.66271210 0.57292175
   H 0.74848175 0.63156128 0.50291443
   H 0.77239227 0.62127686 0.50582886
   H 0.76589203 0.63281250 0.48325348
   H 0.74794006 0.55311584 0.58066559
   H 0.77014160 0.56041718 0.56892395
   H 0.76808167 0.53625488 0.57891083
   H 0.75009155 0.75028229 0.62582397
   H 0.77498627 0.75038147 0.63417053
   H 0.76493835 0.77183533 0.62317657
   H 0.76833344 0.67707825 0.72023010
   H 0.76783752 0.68721008 0.69602966
   H 0.74714661 0.67411804 0.70503235
   H 0.76454163 0.39756012 0.62872314
   H 0.77458954 0.37329102 0.62807465
   H 0.76143646 0.38241577 0.60741425
   H 0.76293182 0.42760468 0.59446716
   H 0.77389526 0.43756866 0.57292175
   H 0.76554108 0.41271210 0.57292175
   H 0.74848175 0.38156128 0.50291443
   H 0.77239227 0.37124634 0.50582886
   H 0.76589203 0.38281250 0.48325348
   H 0.74794006 0.30310822 0.58066559
   H 0.77014160 0.31040192 0.56892395
   H 0.76808167 0.28625488 0.57891083
   H 0.75009155 0.50026703 0.62582397
   H 0.77498627 0.50035095 0.63417053
   H 0.76493835 0.52180481 0.62317657
   H 0.76833344 0.42706299 0.72023010
   H 0.76783752 0.43721008 0.69602966
   H 0.74714661 0.42411804 0.70503235
   H 0.76454163 0.64757538 0.37870789
   H 0.77458954 0.62332153 0.37805939
   H 0.76143646 0.63241577 0.35741425
   H 0.76293182 0.67761993 0.34446716
   H 0.77389526 0.68756866 0.32291412
   H 0.76554108 0.66271210 0.32291412
   H 0.74848175 0.63156128 0.25289917
   H 0.77239227 0.62127686 0.25579834
   H 0.76589203 0.63281250 0.23325348
   H 0.74794006 0.55311584 0.33066559
   H 0.77014160 0.56041718 0.31889343
   H 0.76808167 0.53625488 0.32891083
   H 0.75009155 0.75028229 0.37580872
   H 0.77498627 0.75038147 0.38417053
   H 0.76493835 0.77183533 0.37316132
   H 0.76833344 0.67707825 0.47019958
   H 0.76783752 0.68721008 0.44601440
   H 0.74714661 0.67411804 0.45500183
   C 0.76724243 0.37105560 0.30439758
   C 0.76714325 0.43790436 0.39905548
   C 0.76699829 0.45210266 0.38460541
   C 0.76733398 0.35679626 0.31880188
   C 0.77439880 0.42960358 0.27470398
   C 0.78809357 0.49655914 0.32505798
   C 0.77523804 0.32640076 0.37741089
   C 0.78943634 0.31195068 0.37726593
   C 0.77364349 0.48236084 0.32505798
   C 0.78878784 0.42980957 0.26044464
   C 0.76724243 0.62107086 0.55441284
   C 0.76714325 0.68791962 0.64907074
   C 0.76699829 0.70211792 0.63462067
   C 0.76733398 0.60681152 0.56881714
   C 0.77439880 0.67961884 0.52471924
   C 0.77584076 0.62972260 0.67857361
   C 0.78809357 0.74658966 0.57507324
   C 0.77523804 0.57642365 0.62741089
   C 0.78943634 0.56196594 0.62726593
   C 0.77364349 0.73238373 0.57507324
   C 0.79010010 0.62972260 0.69297791
   C 0.78878784 0.67982483 0.51047516
   C 0.76724243 0.37105560 0.55441284
   C 0.76714325 0.43790436 0.64907074
   C 0.76699829 0.45210266 0.63462067
   C 0.76733398 0.35679626 0.56881714
   C 0.77439880 0.42960358 0.52471924
   C 0.77584076 0.37970734 0.67857361
   C 0.78809357 0.49655914 0.57507324
   C 0.77523804 0.32640076 0.62741089
   C 0.78943634 0.31195068 0.62726593
   C 0.77364349 0.48236084 0.57507324
   C 0.79010010 0.37970734 0.69297791
   C 0.78878784 0.42980957 0.51047516
   C 0.76724243 0.62107086 0.30439758
   C 0.76714325 0.68791962 0.39905548
   C 0.76699829 0.70211792 0.38460541
   C 0.76733398 0.60681152 0.31880188
   C 0.77439880 0.67961884 0.27470398
   C 0.77584076 0.62972260 0.42855835
   C 0.78809357 0.74658966 0.32505798
   C 0.77523804 0.57642365 0.37741089
   C 0.78943634 0.56196594 0.37726593
   C 0.77364349 0.73238373 0.32505798
   C 0.79010010 0.62972260 0.44296265
   C 0.78878784 0.67982483 0.26044464
   H 0.77794647 0.37445831 0.29299927
   H 0.77794647 0.43471527 0.41046143
   H 0.77763367 0.46360779 0.38116455
   H 0.77823639 0.34560394 0.32230377
   H 0.77093506 0.44026184 0.28615570
   H 0.79908752 0.50026703 0.31404877
   H 0.77208710 0.33779907 0.38821411
   H 0.80094147 0.30850220 0.38790131
   H 0.76979065 0.47141266 0.31399536
   H 0.80019379 0.44061279 0.25730133
   H 0.77794647 0.62447357 0.54302216
   H 0.77794647 0.68472290 0.66047668
   H 0.77763367 0.71362305 0.63116455
   H 0.77823639 0.59561157 0.57231903
   H 0.77093506 0.69027710 0.53617096
   H 0.77298737 0.61932373 0.66673279
   H 0.79908752 0.75028229 0.56406403
   H 0.77208710 0.58781433 0.63821411
   H 0.80094147 0.55851746 0.63791656
   H 0.76979065 0.72142792 0.56402588
   H 0.80187988 0.61936188 0.69602966
   H 0.80019379 0.69062805 0.50731659
   H 0.77794647 0.37445831 0.54302216
   H 0.77794647 0.43471527 0.66047668
   H 0.77763367 0.46360779 0.63116455
   H 0.77823639 0.34560394 0.57231903
   H 0.77093506 0.44026184 0.53617096
   H 0.77298737 0.36930847 0.66673279
   H 0.79908752 0.50026703 0.56406403
   H 0.77208710 0.33779907 0.63821411
   H 0.80094147 0.30850220 0.63791656
   H 0.76979065 0.47141266 0.56402588
   H 0.80187988 0.36934662 0.69602966
   H 0.80019379 0.44061279 0.50731659
   H 0.77794647 0.62447357 0.29299927
   H 0.77794647 0.68472290 0.41046143
   H 0.77763367 0.71362305 0.38116455
   H 0.77823639 0.59561157 0.32230377
   H 0.77093506 0.69027710 0.28615570
   H 0.77298737 0.61932373 0.41671753
   H 0.79908752 0.75028229 0.31404877
   H 0.77208710 0.58781433 0.38821411
   H 0.80094147 0.55851746 0.38790131
   H 0.76979065 0.72142792 0.31399536
   H 0.80187988 0.61936188 0.44601440
   H 0.80019379 0.69062805 0.25730133
   N 0.74993896 0.38170624 0.30629730
   N 0.75009155 0.42685699 0.39716339
   N 0.74989319 0.44985199 0.37376404
   N 0.75019073 0.35869598 0.32966614
   N 0.76353455 0.41246033 0.27245331
   N 0.78678894 0.50675201 0.34265900
   N 0.76424408 0.32454681 0.36035919
   N 0.78718567 0.30114746 0.36010742
   N 0.76343536 0.48381042 0.34265900
   N 0.78688812 0.41271210 0.24945831
   N 0.74993896 0.63172150 0.55632782
   N 0.75009155 0.67687225 0.64717102
   N 0.74989319 0.69986725 0.62376404
   N 0.75019073 0.60872650 0.57966614
   N 0.76353455 0.66246033 0.52246857
   N 0.76428986 0.64636230 0.68118286
   N 0.78678894 0.75678253 0.59267426
   N 0.76424408 0.57456970 0.61037445
   N 0.78718567 0.55117798 0.61012268
   N 0.76343536 0.73382568 0.59267426
   N 0.78728485 0.64636230 0.70452881
   N 0.78688812 0.66271210 0.49947357
   N 0.74993896 0.38170624 0.55632782
   N 0.75009155 0.42685699 0.64717102
   N 0.74989319 0.44985199 0.62376404
   N 0.75019073 0.35869598 0.57966614
   N 0.76353455 0.41246033 0.52246857
   N 0.76428986 0.39636230 0.68118286
   N 0.78678894 0.50675201 0.59267426
   N 0.76424408 0.32454681 0.61037445
   N 0.78718567 0.30114746 0.61012268
   N 0.76343536 0.48381042 0.59267426
   N 0.78728485 0.39636230 0.70452881
   N 0.78688812 0.41271210 0.49947357
   N 0.74993896 0.63172150 0.30629730
   N 0.75009155 0.67687225 0.39716339
   N 0.74989319 0.69986725 0.37376404
   N 0.75019073 0.60872650 0.32966614
   N 0.76353455 0.66246033 0.27245331
   N 0.76428986 0.64636230 0.43116760
   N 0.78678894 0.75678253 0.34265900
   N 0.76424408 0.57456970 0.36035919
   N 0.78718567 0.55117798 0.36010742
   N 0.76343536 0.73382568 0.34265900
   N 0.78728485 0.64636230 0.45450592
   N 0.78688812 0.66271210 0.24945831
   C 0.74258423 0.43435669 0.32135010
   C 0.74329376 0.37429047 0.38185883
   C 0.77148438 0.40276337 0.25704956
   C 0.77173615 0.49876404 0.35281372
   C 0.77183533 0.30915070 0.35034943
   C 0.74258423 0.68437195 0.57136536
   C 0.74329376 0.62432098 0.63187408
   C 0.77148438 0.65276337 0.50706482
   C 0.77158356 0.65591431 0.69698334
   C 0.77173615 0.74877930 0.60282898
   C 0.77183533 0.55916595 0.60036469
   C 0.74258423 0.43435669 0.57136536
   C 0.74329376 0.37429047 0.63187408
   C 0.77148438 0.40276337 0.50706482
   C 0.77158356 0.40591431 0.69698334
   C 0.77173615 0.49876404 0.60282898
   C 0.77183533 0.30915070 0.60036469
   C 0.74258423 0.68437195 0.32135010
   C 0.74329376 0.62432098 0.38185883
   C 0.77148438 0.65276337 0.25704956
   C 0.77158356 0.65591431 0.44695282
   C 0.77173615 0.74877930 0.35281372
   C 0.77183533 0.55916595 0.35034943
   C 0.76224518 0.42766571 0.32826996
   C 0.76188660 0.38241577 0.37361908
   C 0.76413727 0.38360596 0.24929047
   C 0.76503754 0.50560760 0.37251282
   C 0.76409912 0.30179596 0.33125305
   C 0.76224518 0.67766571 0.57826996
   C 0.76188660 0.63241577 0.62361908
   C 0.76413727 0.63362122 0.49932098
   C 0.76334381 0.67451477 0.70503235
   C 0.76503754 0.75563812 0.62251282
   C 0.76409912 0.55182648 0.58126831
   C 0.76224518 0.42766571 0.57826996
   C 0.76188660 0.38241577 0.62361908
   C 0.76413727 0.38360596 0.49932098
   C 0.76334381 0.42451477 0.70503235
   C 0.76503754 0.50560760 0.62251282
   C 0.76409912 0.30179596 0.58126831
   C 0.76224518 0.67766571 0.32826996
   C 0.76188660 0.63241577 0.37361908
   C 0.76413727 0.63362122 0.24929047
   C 0.76334381 0.67451477 0.45500183
   C 0.76503754 0.75563812 0.37251282
   C 0.76409912 0.55182648 0.33125305
  Zn 0.36677551 0.77957916 0.28924561
  Zn 0.61677551 0.77957916 0.28924561
   H 0.37211609 0.79913330 0.33000183
   H 0.39282227 0.81222534 0.32099915
   H 0.39336395 0.80213165 0.34519958
   H 0.33766937 0.80317688 0.36031342
   H 0.33766937 0.81153870 0.38520813
   H 0.35916901 0.80063629 0.37526703
   H 0.62213135 0.79913330 0.58001709
   H 0.64283752 0.81222534 0.57102966
   H 0.64337921 0.80213165 0.59521484
   H 0.58768463 0.80317688 0.61031342
   H 0.58768463 0.81153870 0.63522339
   H 0.60918427 0.80063629 0.62526703
   H 0.37211609 0.79913330 0.58001709
   H 0.39282227 0.81222534 0.57102966
   H 0.39336395 0.80213165 0.59521484
   H 0.33766937 0.80317688 0.61031342
   H 0.33766937 0.81153870 0.63522339
   H 0.35916901 0.80063629 0.62526703
   H 0.62213135 0.79913330 0.33000183
   H 0.64283752 0.81222534 0.32099915
   H 0.64337921 0.80213165 0.34519958
   C 0.39936829 0.80463409 0.39970398
   C 0.33351898 0.80496979 0.30439758
   C 0.31906891 0.80482483 0.31859589
   C 0.41377258 0.80477905 0.38545990
   C 0.64938354 0.80463409 0.64971924
   C 0.58353424 0.80496979 0.55441284
   C 0.56908417 0.80482483 0.56861115
   C 0.66378784 0.80477905 0.63547516
   C 0.39936829 0.80463409 0.64971924
   C 0.33351898 0.80496979 0.55441284
   C 0.31906891 0.80482483 0.56861115
   C 0.41377258 0.80477905 0.63547516
   C 0.64938354 0.80463409 0.39970398
   C 0.58353424 0.80496979 0.30439758
   C 0.56908417 0.80482483 0.31859589
   C 0.66378784 0.80477905 0.38545990
   H 0.39592743 0.81527710 0.41115570
   H 0.33692169 0.81583405 0.29314423
   H 0.30766296 0.81552124 0.32199860
   H 0.42517853 0.81558228 0.38231659
   H 0.64592743 0.81527710 0.66117096
   H 0.58693695 0.81583405 0.54317474
   H 0.55767822 0.81552124 0.57201385
   H 0.67519379 0.81558228 0.63231659
   H 0.39592743 0.81527710 0.66117096
   H 0.33692169 0.81583405 0.54317474
   H 0.30766296 0.81552124 0.57201385
   H 0.42517853 0.81558228 0.63231659
   H 0.64592743 0.81527710 0.41115570
   H 0.58693695 0.81583405 0.29314423
   H 0.55767822 0.81552124 0.32199860
   H 0.67519379 0.81558228 0.38231659
   N 0.38851929 0.78753662 0.39745331
   N 0.34436798 0.78778839 0.30629730
   N 0.32106781 0.78758240 0.32930756
   N 0.41187286 0.78778839 0.37445831
   N 0.63851929 0.78753662 0.64746857
   N 0.59437561 0.78778839 0.55632782
   N 0.57108307 0.78758240 0.57932281
   N 0.66188812 0.78778839 0.62447357
   N 0.38851929 0.78753662 0.64746857
   N 0.34436798 0.78778839 0.55632782
   N 0.32106781 0.78758240 0.57932281
   N 0.41187286 0.78778839 0.62447357
   N 0.63851929 0.78753662 0.39745331
   N 0.59437561 0.78778839 0.30629730
   N 0.57108307 0.78758240 0.32930756
   N 0.66188812 0.78778839 0.37445831
   C 0.33606720 0.78022003 0.38195801
   C 0.39661407 0.78092957 0.32195282
   C 0.58608246 0.78022003 0.63197327
   C 0.64662933 0.78092957 0.57196808
   C 0.33606720 0.78022003 0.63197327
   C 0.39661407 0.78092957 0.57196808
   C 0.64662933 0.78092957 0.32195282
   C 0.34296417 0.79988098 0.37526703
   C 0.38831329 0.79953003 0.33000183
   C 0.59297943 0.79988098 0.62526703
   C 0.63832855 0.79953003 0.58001709
   C 0.34296417 0.79988098 0.62526703
   C 0.38831329 0.79953003 0.58001709
   C 0.63832855 0.79953003 0.33000183
   H 0.63647461 0.25740051 0.73238373
   H 0.64952850 0.24835205 0.75307465
   H 0.63948059 0.27254486 0.75372314
   H 0.38647461 0.25740051 0.73238373
   H 0.39951324 0.24835205 0.75307465
   H 0.38946533 0.27254486 0.75372314
   C 0.59208679 0.24539185 0.77527618
   C 0.59208679 0.23100281 0.76107788
   C 0.34207153 0.24539185 0.77527618
   C 0.34207153 0.23100281 0.76107788
   H 0.58168030 0.24845123 0.78707886
   H 0.58163452 0.21914673 0.75822449
   H 0.33166504 0.24845123 0.78707886
   H 0.33161926 0.21914673 0.75822449
   N 0.60872650 0.25690460 0.77258301
   N 0.60868073 0.23355103 0.74952698
   N 0.35872650 0.25690460 0.77258301
   N 0.35866547 0.23355103 0.74952698
   C 0.61827850 0.24935150 0.75688934
   C 0.36827850 0.24935150 0.75688934
   C 0.63687134 0.25740051 0.74863434
   C 0.38687134 0.25740051 0.74863434
  Zn 0.42907715 0.40377045 0.72653198
  Zn 0.36627197 0.34165955 0.72637939
  Zn 0.30401611 0.40441132 0.72718048
  Zn 0.36692047 0.46665955 0.72707367
  Zn 0.67909241 0.65377045 0.72653198
  Zn 0.61627197 0.59167480 0.72637939
  Zn 0.55403137 0.65441132 0.72718048
  Zn 0.61693573 0.71667480 0.72707367
  Zn 0.42907715 0.65377045 0.72653198
  Zn 0.36627197 0.59167480 0.72637939
  Zn 0.30401611 0.65441132 0.72718048
  Zn 0.36692047 0.71667480 0.72707367
  Zn 0.67909241 0.40377045 0.72653198
  Zn 0.61627197 0.34165955 0.72637939
  Zn 0.55403137 0.40441132 0.72718048
  Zn 0.61693573 0.46665955 0.72707367
   H 0.37511444 0.37525177 0.75082397
   H 0.39997101 0.37535095 0.75912476
   H 0.38992310 0.39680481 0.74817657
   H 0.35991669 0.43099976 0.74973297
   H 0.33572388 0.43050385 0.75982666
   H 0.34471893 0.40975952 0.74673462
   H 0.48416901 0.42560577 0.75028229
   H 0.46262360 0.43650818 0.76022339
   H 0.46266937 0.42816162 0.73537445
   H 0.24845123 0.38156128 0.75292969
   H 0.27236938 0.37124634 0.75582886
   H 0.26586151 0.38281250 0.73328400
   H 0.38647461 0.50741577 0.73238373
   H 0.39951324 0.49836731 0.75307465
   H 0.38946533 0.52256012 0.75372314
   H 0.34367371 0.30569458 0.73387146
   H 0.33366394 0.30769348 0.75797272
   H 0.34542084 0.28550720 0.75067902
   H 0.62512970 0.62526703 0.75082397
   H 0.64998627 0.62536621 0.75912476
   H 0.63993835 0.64682007 0.74817657
   H 0.60993195 0.68101501 0.74973297
   H 0.58572388 0.68051910 0.75982666
   H 0.59473419 0.65976715 0.74673462
   H 0.73419952 0.67562103 0.75028229
   H 0.71263885 0.68652344 0.76022339
   H 0.71268463 0.67816162 0.73537445
   H 0.49848175 0.63156128 0.75292969
   H 0.52238464 0.62127686 0.75582886
   H 0.51587677 0.63281250 0.73328400
   H 0.63647461 0.75743103 0.73238373
   H 0.64952850 0.74838257 0.75307465
   H 0.63948059 0.77258301 0.75372314
   H 0.59367371 0.55572510 0.73387146
   H 0.58367920 0.55772400 0.75797272
   H 0.59542084 0.53550720 0.75067902
   H 0.37511444 0.62526703 0.75082397
   H 0.39997101 0.62536621 0.75912476
   H 0.38992310 0.64682007 0.74817657
   H 0.35991669 0.68101501 0.74973297
   H 0.33572388 0.68051910 0.75982666
   H 0.34471893 0.65976715 0.74673462
   H 0.48416901 0.67562103 0.75028229
   H 0.46262360 0.68652344 0.76022339
   H 0.46266937 0.67816162 0.73537445
   H 0.38647461 0.75743103 0.73238373
   H 0.39951324 0.74838257 0.75307465
   H 0.38946533 0.77258301 0.75372314
   H 0.34367371 0.55572510 0.73387146
   H 0.33366394 0.55772400 0.75797272
   H 0.34542084 0.53550720 0.75067902
   H 0.62512970 0.37525177 0.75082397
   H 0.64998627 0.37535095 0.75912476
   H 0.63993835 0.39680481 0.74817657
   H 0.60993195 0.43099976 0.74973297
   H 0.58572388 0.43050385 0.75982666
   H 0.59473419 0.40975952 0.74673462
   H 0.73419952 0.42560577 0.75028229
   H 0.71263885 0.43650818 0.76022339
   H 0.71268463 0.42816162 0.73537445
   H 0.49848175 0.38156128 0.75292969
   H 0.52238464 0.37124634 0.75582886
   H 0.51587677 0.38281250 0.73328400
   H 0.63647461 0.50741577 0.73238373
   H 0.64952850 0.49836731 0.75307465
   H 0.63948059 0.52256012 0.75372314
   H 0.59367371 0.30569458 0.73387146
   H 0.58367920 0.30769348 0.75797272
   H 0.59542084 0.28550720 0.75067902
   C 0.33331299 0.35665131 0.75238037
   C 0.40022278 0.45141602 0.75242615
   C 0.41442108 0.43696594 0.75228119
   C 0.31906891 0.37110138 0.75248718
   C 0.45891571 0.37745667 0.77333832
   C 0.27436829 0.42960358 0.77473450
   C 0.39211273 0.31290436 0.77407074
   C 0.34207153 0.49540710 0.77527618
   C 0.34207153 0.48100281 0.76107788
   C 0.39196777 0.32710266 0.75962067
   C 0.44471741 0.37745667 0.75887299
   C 0.28875732 0.42980957 0.76047516
   C 0.58332825 0.60666656 0.75238037
   C 0.65023804 0.70142365 0.75242615
   C 0.66443634 0.68696594 0.75228119
   C 0.56908417 0.62111664 0.75248718
   C 0.70894623 0.62747192 0.77333832
   C 0.52438354 0.67961884 0.77473450
   C 0.64212799 0.56291962 0.77407074
   C 0.59208679 0.74542236 0.77527618
   C 0.59208679 0.73103333 0.76107788
   C 0.64198303 0.57711792 0.75962067
   C 0.69474792 0.62747192 0.75887299
   C 0.53877258 0.67982483 0.76047516
   C 0.33331299 0.60666656 0.75238037
   C 0.40022278 0.70142365 0.75242615
   C 0.41442108 0.68696594 0.75228119
   C 0.31906891 0.62111664 0.75248718
   C 0.45891571 0.62747192 0.77333832
   C 0.39211273 0.56291962 0.77407074
   C 0.34207153 0.74542236 0.77527618
   C 0.34207153 0.73103333 0.76107788
   C 0.39196777 0.57711792 0.75962067
   C 0.44471741 0.62747192 0.75887299
   C 0.58332825 0.35665131 0.75238037
   C 0.65023804 0.45141602 0.75242615
   C 0.66443634 0.43696594 0.75228119
   C 0.56908417 0.37110138 0.75248718
   C 0.70894623 0.37745667 0.77333832
   C 0.52438354 0.42960358 0.77473450
   C 0.64212799 0.31290436 0.77407074
   C 0.59208679 0.49540710 0.77527618
   C 0.59208679 0.48100281 0.76107788
   C 0.64198303 0.32710266 0.75962067
   C 0.69474792 0.37745667 0.75887299
   C 0.53877258 0.42980957 0.76047516
   H 0.33666992 0.34519958 0.76303864
   H 0.39701080 0.46281433 0.76322937
   H 0.42592621 0.43350220 0.76293182
   H 0.30775452 0.37449646 0.76332855
   H 0.46262360 0.36640930 0.78433228
   H 0.27091217 0.44026184 0.78618622
   H 0.40291595 0.30970001 0.78547668
   H 0.33166504 0.49845123 0.78707886
   H 0.33161926 0.46916199 0.75822449
   H 0.40257263 0.33859253 0.75617981
   H 0.43381500 0.36640930 0.75497437
   H 0.30016327 0.44061279 0.75732422
   H 0.58668518 0.59521484 0.76303864
   H 0.64702606 0.71281433 0.76322937
   H 0.67594147 0.68351746 0.76293182
   H 0.55778503 0.62451172 0.76332855
   H 0.71263885 0.61642456 0.78433228
   H 0.52092743 0.69027710 0.78618622
   H 0.65293121 0.55972290 0.78547668
   H 0.58168030 0.74848175 0.78707886
   H 0.58163452 0.71916962 0.75822449
   H 0.65257263 0.58862305 0.75617981
   H 0.68384552 0.61642456 0.75497437
   H 0.55017853 0.69062805 0.75732422
   H 0.33666992 0.59521484 0.76303864
   H 0.39701080 0.71281433 0.76322937
   H 0.42592621 0.68351746 0.76293182
   H 0.30775452 0.62451172 0.76332855
   H 0.46262360 0.61642456 0.78433228
   H 0.40291595 0.55972290 0.78547668
   H 0.33166504 0.74848175 0.78707886
   H 0.33161926 0.71916962 0.75822449
   H 0.40257263 0.58862305 0.75617981
   H 0.43381500 0.61642456 0.75497437
   H 0.58668518 0.34519958 0.76303864
   H 0.64702606 0.46281433 0.76322937
   H 0.67594147 0.43350220 0.76293182
   H 0.55778503 0.37449646 0.76332855
   H 0.71263885 0.36640930 0.78433228
   H 0.52092743 0.44026184 0.78618622
   H 0.65293121 0.30970001 0.78547668
   H 0.58168030 0.49845123 0.78707886
   H 0.58163452 0.46916199 0.75822449
   H 0.65257263 0.33859253 0.75617981
   H 0.68384552 0.36640930 0.75497437
   H 0.55017853 0.44061279 0.75732422
   N 0.34407043 0.35865021 0.73512268
   N 0.38921356 0.44951630 0.73537445
   N 0.41221619 0.42616272 0.73512268
   N 0.32102966 0.38200378 0.73537445
   N 0.46911621 0.39505768 0.77208710
   N 0.26351166 0.41246033 0.77248383
   N 0.37507629 0.30185699 0.77217102
   N 0.35872650 0.50691223 0.77258301
   N 0.35866547 0.48356628 0.74952698
   N 0.37482452 0.32485199 0.74877930
   N 0.44617462 0.39505768 0.74867249
   N 0.28685760 0.41271210 0.74948120
   N 0.59408569 0.60866547 0.73512268
   N 0.63922882 0.69951630 0.73537445
   N 0.66223907 0.67617798 0.73512268
   N 0.57102966 0.63201904 0.73537445
   N 0.71914673 0.64507294 0.77208710
   N 0.51351929 0.66246033 0.77248383
   N 0.62507629 0.55187225 0.77217102
   N 0.60872650 0.75692749 0.77258301
   N 0.60868073 0.73358154 0.74952698
   N 0.62482452 0.57486725 0.74877930
   N 0.69618988 0.64507294 0.74867249
   N 0.53687286 0.66271210 0.74948120
   N 0.34407043 0.60866547 0.73512268
   N 0.38921356 0.69951630 0.73537445
   N 0.41221619 0.67617798 0.73512268
   N 0.32102966 0.63201904 0.73537445
   N 0.46911621 0.64507294 0.77208710
   N 0.37507629 0.55187225 0.77217102
   N 0.35872650 0.75692749 0.77258301
   N 0.35866547 0.73358154 0.74952698
   N 0.37482452 0.57486725 0.74877930
   N 0.44617462 0.64507294 0.74867249
   N 0.59408569 0.35865021 0.73512268
   N 0.63922882 0.44951630 0.73537445
   N 0.66223907 0.42616272 0.73512268
   N 0.57102966 0.38200378 0.73537445
   N 0.71914673 0.39505768 0.77208710
   N 0.51351929 0.41246033 0.77248383
   N 0.62507629 0.30185699 0.77217102
   N 0.60872650 0.50691223 0.77258301
   N 0.60868073 0.48356628 0.74952698
   N 0.62482452 0.32485199 0.74877930
   N 0.69618988 0.39505768 0.74867249
   N 0.53687286 0.41271210 0.74948120
   C 0.39672089 0.37370300 0.72782898
   C 0.33666992 0.43425751 0.72853088
   C 0.46106720 0.40521240 0.75703430
   C 0.27145386 0.40276337 0.75708008
   C 0.36512756 0.30944824 0.75672150
   C 0.36827850 0.49936676 0.75688934
   C 0.64673615 0.62371826 0.72782898
   C 0.58668518 0.68427277 0.72853088
   C 0.71109772 0.65522003 0.75703430
   C 0.52148438 0.65276337 0.75708008
   C 0.61512756 0.55947876 0.75672150
   C 0.61827850 0.74938202 0.75688934
   C 0.39672089 0.62371826 0.72782898
   C 0.33666992 0.68427277 0.72853088
   C 0.46106720 0.65522003 0.75703430
   C 0.36512756 0.55947876 0.75672150
   C 0.36827850 0.74938202 0.75688934
   C 0.64673615 0.37370300 0.72782898
   C 0.58668518 0.43425751 0.72853088
   C 0.71109772 0.40521240 0.75703430
   C 0.52148438 0.40276337 0.75708008
   C 0.61512756 0.30944824 0.75672150
   C 0.61827850 0.49936676 0.75688934
   C 0.39002228 0.38060760 0.74748230
   C 0.34477997 0.42595673 0.74717712
   C 0.46796417 0.42491150 0.75032043
   C 0.26411438 0.38360596 0.74932098
   C 0.34602356 0.30170441 0.74938202
   C 0.38687134 0.50741577 0.74863434
   C 0.64002228 0.63062286 0.74748230
   C 0.59477997 0.67597198 0.74717712
   C 0.71799469 0.67492676 0.75032043
   C 0.51412964 0.63362122 0.74932098
   C 0.59602356 0.55171967 0.74938202
   C 0.63687134 0.75743103 0.74863434
   C 0.39002228 0.63062286 0.74748230
   C 0.34477997 0.67597198 0.74717712
   C 0.46796417 0.67492676 0.75032043
   C 0.34602356 0.55171967 0.74938202
   C 0.38687134 0.75743103 0.74863434
   C 0.64002228 0.38060760 0.74748230
   C 0.59477997 0.42595673 0.74717712
   C 0.71799469 0.42491150 0.75032043
   C 0.51412964 0.38360596 0.74932098
   C 0.59602356 0.30170441 0.74938202
   C 0.63687134 0.50741577 0.74863434
   H 0.74848175 0.38156128 0.75292969
   H 0.77239227 0.37124634 0.75582886
   H 0.76589203 0.38281250 0.73328400
   H 0.74848175 0.63156128 0.75292969
   H 0.77239227 0.62127686 0.75582886
   H 0.76589203 0.63281250 0.73328400
   C 0.77439880 0.42960358 0.77473450
   C 0.78878784 0.42980957 0.76047516
   C 0.77439880 0.67961884 0.77473450
   C 0.78878784 0.67982483 0.76047516
   H 0.77093506 0.44026184 0.78618622
   H 0.80019379 0.44061279 0.75732422
   H 0.77093506 0.69027710 0.78618622
   H 0.80019379 0.69062805 0.75732422
   N 0.76353455 0.41246033 0.77248383
   N 0.78688812 0.41271210 0.74948120
   N 0.76353455 0.66246033 0.77248383
   N 0.78688812 0.66271210 0.74948120
   C 0.77148438 0.40276337 0.75708008
   C 0.77148438 0.65276337 0.75708008
   C 0.76413727 0.38360596 0.74932098
   C 0.76413727 0.63362122 0.74932098
  He 0.35618591 0.52487946 0.40652466
  Ne 0.34963989 0.52226257 0.40139008
  He 0.37010956 0.51883698 0.42200470
  Ne 0.37271118 0.51227570 0.42704010
  He 0.37623596 0.53276062 0.40670776
  Ne 0.38290405 0.53533936 0.40167999
  He 0.36219788 0.53887939 0.42202759
  Ne 0.35959625 0.54550171 0.42713165
  He 0.48719788 0.41387177 0.29701996
  Ne 0.48459625 0.42049408 0.30211639
  He 0.48118591 0.39987946 0.28150940
  Ne 0.47463989 0.39727020 0.27639008
  He 0.49510956 0.39383698 0.29698944
  Ne 0.49771118 0.38727570 0.30202484
  He 0.50124359 0.40774536 0.28169250
  Ne 0.50789642 0.41030121 0.27667999
  He 0.35665894 0.28324890 0.29694366
  Ne 0.34999084 0.28568268 0.30201721
  He 0.37052917 0.28962708 0.28151703
  Ne 0.37299347 0.29625702 0.27644348
  He 0.37693787 0.27584076 0.29688263
  Ne 0.38362885 0.27340698 0.30191040
  He 0.36312866 0.26930237 0.28168488
  Ne 0.36074829 0.26259613 0.27674103
  He 0.48810577 0.39431763 0.40670776
  Ne 0.48570251 0.38759613 0.40175629
  He 0.48165894 0.40828705 0.42195129
  Ne 0.47498322 0.41075134 0.42703247
  He 0.49552917 0.41464233 0.40653229
  Ne 0.49799347 0.42125702 0.40145874
  He 0.50193787 0.40085602 0.42189789
  Ne 0.50862885 0.39842224 0.42692566
  He 0.42146301 0.41387939 0.23038483
  Ne 0.41645050 0.42053986 0.23293304
  He 0.43680573 0.39983368 0.23651123
  Ne 0.44187927 0.39724731 0.24308777
  He 0.42127991 0.39382172 0.22252655
  Ne 0.41614532 0.38727570 0.21990967
  He 0.35623932 0.34934235 0.23030090
  Ne 0.34964752 0.35437775 0.23289490
  He 0.37014008 0.33405304 0.23648071
  Ne 0.37267303 0.32907867 0.24311829
  He 0.37627411 0.34939575 0.22241974
  Ne 0.38286591 0.35449982 0.21982574
  He 0.31170654 0.39428711 0.23085022
  Ne 0.31675720 0.38763428 0.23328400
  He 0.29627228 0.40815735 0.23722076
  Ne 0.29116058 0.41062927 0.24386597
  He 0.31165314 0.41458130 0.22344971
  Ne 0.31668091 0.42126465 0.22100830
  He 0.37699127 0.45891571 0.23079681
  Ne 0.38362122 0.45381927 0.23326111
  He 0.36318970 0.47430420 0.23719788
  Ne 0.36074066 0.47931671 0.24385834
  He 0.35668945 0.45909119 0.22338867
  Ne 0.34996033 0.45411682 0.22098541
  He 0.48727417 0.45892334 0.34142303
  Ne 0.48463440 0.45378113 0.33486938
  He 0.48123169 0.47438049 0.35531616
  Ne 0.47465515 0.47940826 0.35791016
  He 0.49516296 0.45910645 0.36147308
  Ne 0.49772644 0.45408630 0.36814117
  He 0.50128937 0.47444153 0.34742737
  Ne 0.50787354 0.47952271 0.34484100
  He 0.48819733 0.34929657 0.36221313
  Ne 0.48574066 0.35430908 0.36887360
  He 0.48168945 0.33410645 0.34839630
  Ne 0.47496796 0.32915497 0.34600067
  He 0.49565887 0.34934998 0.34194183
  Ne 0.49810791 0.35441589 0.33528900
  He 0.50201416 0.33392334 0.35581207
  Ne 0.50863647 0.32884216 0.35827637
  He 0.31175995 0.52483368 0.36151123
  Ne 0.31687164 0.52223969 0.36810303
  He 0.29622650 0.51882935 0.34751892
  Ne 0.29108429 0.51226807 0.34487915
  He 0.31171417 0.53273773 0.34149170
  Ne 0.31679535 0.53536224 0.33487701
  He 0.29640198 0.53888702 0.35539246
  Ne 0.29138947 0.54555511 0.35794830
  He 0.42146301 0.52579498 0.34191895
  Ne 0.41651154 0.52339935 0.33519745
  He 0.43669891 0.51932526 0.35586548
  Ne 0.44176483 0.51263428 0.35830688
  He 0.42127228 0.53320312 0.36222839
  Ne 0.41617584 0.53567505 0.36886597
  He 0.43666077 0.53961182 0.34843445
  Ne 0.44168091 0.54627228 0.34598541
  He 0.60618591 0.77490997 0.65653229
  Ne 0.59965515 0.77229309 0.65140533
  He 0.62010193 0.76885986 0.67201996
  Ne 0.62271118 0.76229095 0.67705536
  He 0.62623596 0.78279114 0.65672302
  Ne 0.63290405 0.78536987 0.65169525
  He 0.73721313 0.66389465 0.54703522
  Ne 0.73462677 0.67050171 0.55212402
  He 0.73120117 0.64989471 0.53152466
  Ne 0.72467041 0.64728546 0.52640533
  He 0.74511719 0.64385223 0.54701233
  Ne 0.74772644 0.63728333 0.55205536
  He 0.75125885 0.65775299 0.53170776
  Ne 0.75791168 0.66030121 0.52669525
  He 0.60665894 0.53326416 0.54697418
  Ne 0.59999847 0.53569794 0.55204773
  He 0.62052155 0.53964233 0.53154755
  Ne 0.62299347 0.54627228 0.52646637
  He 0.62694550 0.52585602 0.54690552
  Ne 0.63362122 0.52342224 0.55192566
  He 0.61313629 0.51931000 0.53171539
  Ne 0.61074829 0.51260376 0.52677155
  He 0.73812866 0.64433289 0.65672302
  Ne 0.73572540 0.63760376 0.65176392
  He 0.73167419 0.65829468 0.67197418
  Ne 0.72500610 0.66075134 0.67704773
  He 0.74554443 0.66464996 0.65653992
  Ne 0.74800873 0.67127228 0.65146637
  He 0.75195312 0.65086365 0.67191315
  Ne 0.75864410 0.64842224 0.67694092
  He 0.67147827 0.66388702 0.48039246
  Ne 0.66646576 0.67055511 0.48294830
  He 0.68682098 0.64984131 0.48652649
  Ne 0.69189453 0.64725494 0.49311066
  He 0.67129517 0.64382935 0.47254181
  Ne 0.66616821 0.63729095 0.46992493
  He 0.68675995 0.65774536 0.46647644
  Ne 0.69178772 0.66035461 0.45989227
  He 0.60623932 0.59935760 0.48030853
  Ne 0.59966278 0.60439301 0.48291016
  He 0.62014008 0.58407593 0.48648834
  Ne 0.62267303 0.57908630 0.49313354
  He 0.62628174 0.59941101 0.47242737
  Ne 0.63288116 0.60451508 0.46984100
  He 0.61227417 0.58389282 0.46640778
  Ne 0.60964966 0.57878876 0.45987701
  He 0.56172180 0.64428711 0.48087311
  Ne 0.56675720 0.63764954 0.48329926
  He 0.54628754 0.65815735 0.48722839
  Ne 0.54117584 0.66062927 0.49388123
  He 0.56166840 0.66458130 0.47345734
  Ne 0.56668091 0.67126465 0.47102356
  He 0.54646301 0.65077209 0.46692657
  Ne 0.54148865 0.64838409 0.46019745
  He 0.62699890 0.70892334 0.48080444
  Ne 0.63363647 0.70381927 0.48327637
  He 0.61320496 0.72431946 0.48721313
  Ne 0.61075592 0.72933197 0.49387360
  He 0.60669708 0.70910645 0.47340393
  Ne 0.59996033 0.70413208 0.47099304
  He 0.62065887 0.72437286 0.46694946
  Ne 0.62310791 0.72944641 0.46028900
  He 0.73729706 0.70892334 0.59143066
  Ne 0.73466492 0.70379639 0.58489227
  He 0.73124695 0.72438812 0.60533142
  Ne 0.72466278 0.72941589 0.60792542
  He 0.74517822 0.70910645 0.61148834
  Ne 0.74773407 0.70409393 0.61814117
  He 0.75129700 0.72444916 0.59744263
  Ne 0.75788116 0.72953033 0.59485626
  He 0.73820496 0.59931183 0.61222839
  Ne 0.73577118 0.60431671 0.61887360
  He 0.73169708 0.58412170 0.59840393
  Ne 0.72498322 0.57917023 0.59600067
  He 0.74565887 0.59936523 0.59196472
  Ne 0.74812317 0.60444641 0.58528900
  He 0.75201416 0.58394623 0.60582733
  Ne 0.75864410 0.57885742 0.60829163
  He 0.56177521 0.77485657 0.61151886
  Ne 0.56687164 0.77227020 0.61811066
  He 0.54624176 0.76884460 0.59751892
  Ne 0.54111481 0.76230621 0.59489441
  He 0.56172943 0.78275299 0.59149933
  Ne 0.56681061 0.78537750 0.58488464
  He 0.67149353 0.77581024 0.59191895
  Ne 0.66654205 0.77341461 0.58520508
  He 0.68672180 0.76934052 0.60587311
  Ne 0.69178009 0.76266479 0.60831451
  He 0.67130280 0.78322601 0.61222839
  Ne 0.66619110 0.78570557 0.61888123
  He 0.35618591 0.77490997 0.65653992
  Ne 0.34963989 0.77229309 0.65140533
  He 0.37010193 0.76885986 0.67201996
  Ne 0.37271118 0.76229095 0.67705536
  He 0.37623596 0.78279114 0.65672302
  Ne 0.38290405 0.78536987 0.65169525
  He 0.49510956 0.64385223 0.54701233
  Ne 0.49771118 0.63728333 0.55205536
  He 0.50124359 0.65775299 0.53170776
  Ne 0.50789642 0.66030121 0.52669525
  He 0.48719788 0.66388702 0.54703522
  Ne 0.48459625 0.67050934 0.55212402
  He 0.48118591 0.64989471 0.53152466
  Ne 0.47463989 0.64727783 0.52639771
  He 0.35665894 0.53326416 0.54697418
  Ne 0.34999084 0.53569794 0.55204773
  He 0.37052155 0.53964233 0.53154755
  Ne 0.37299347 0.54627228 0.52646637
  He 0.37694550 0.52585602 0.54690552
  Ne 0.38362122 0.52342224 0.55192566
  He 0.36313629 0.51931000 0.53171539
  Ne 0.36074829 0.51260376 0.52677155
  He 0.49552917 0.66464996 0.65653992
  Ne 0.49799347 0.67127228 0.65146637
  He 0.50193787 0.65086365 0.67191315
  Ne 0.50862885 0.64842224 0.67694092
  He 0.48810577 0.64433289 0.65672302
  Ne 0.48570251 0.63760376 0.65176392
  He 0.48165894 0.65829468 0.67197418
  Ne 0.47499084 0.66075134 0.67704773
  He 0.42146301 0.66388702 0.48039246
  Ne 0.41644287 0.67055511 0.48294830
  He 0.43680573 0.64984131 0.48652649
  Ne 0.44187927 0.64725494 0.49311066
  He 0.42127991 0.64382935 0.47254181
  Ne 0.41614532 0.63728333 0.46992493
  He 0.43674469 0.65774536 0.46647644
  Ne 0.44177246 0.66035461 0.45989227
  He 0.35623932 0.59934998 0.48030853
  Ne 0.34964752 0.60439301 0.48291016
  He 0.37014008 0.58407593 0.48648834
  Ne 0.37267303 0.57908630 0.49313354
  He 0.37627411 0.59941101 0.47242737
  Ne 0.38286591 0.60450745 0.46984100
  He 0.36226654 0.58389282 0.46640778
  Ne 0.35963440 0.57878876 0.45987701
  He 0.31170654 0.64428711 0.48086548
  Ne 0.31675720 0.63764191 0.48329926
  He 0.29627228 0.65815735 0.48722839
  Ne 0.29116058 0.66062927 0.49388123
  He 0.31165314 0.66458130 0.47345734
  Ne 0.31668091 0.67126465 0.47102356
  He 0.29644012 0.65077972 0.46692657
  Ne 0.29145813 0.64838409 0.46018982
  He 0.37699127 0.70892334 0.48080444
  Ne 0.38362122 0.70381927 0.48327637
  He 0.36318970 0.72431946 0.48721313
  Ne 0.36074066 0.72933197 0.49387360
  He 0.35668945 0.70910645 0.47340393
  Ne 0.34996033 0.70413208 0.47099304
  He 0.37065125 0.72437286 0.46694946
  Ne 0.37310791 0.72944641 0.46028137
  He 0.49516296 0.70910645 0.61148071
  Ne 0.49772644 0.70409393 0.61814117
  He 0.50128174 0.72444153 0.59744263
  Ne 0.50787354 0.72953796 0.59485626
  He 0.48727417 0.70893097 0.59143066
  Ne 0.48463440 0.70379639 0.58488464
  He 0.48123169 0.72438812 0.60532379
  Ne 0.47464752 0.72941589 0.60792542
  He 0.49565887 0.59937286 0.59195709
  Ne 0.49810791 0.60444641 0.58528900
  He 0.50201416 0.58393860 0.60582733
  Ne 0.50863647 0.57886505 0.60829163
  He 0.48819733 0.59931183 0.61222076
  Ne 0.48574066 0.60431671 0.61887360
  He 0.48168945 0.58412170 0.59841156
  Ne 0.47496796 0.57917023 0.59600067
  He 0.31175995 0.77485657 0.61151886
  Ne 0.31687164 0.77227020 0.61811829
  He 0.29622650 0.76884460 0.59752655
  Ne 0.29109192 0.76230621 0.59489441
  He 0.31171417 0.78275299 0.59149933
  Ne 0.31679535 0.78537750 0.58488464
  He 0.42146301 0.77581024 0.59191895
  Ne 0.41651154 0.77341461 0.58520508
  He 0.43669891 0.76934052 0.60587311
  Ne 0.44176483 0.76266479 0.60831451
  He 0.42127991 0.78322601 0.61223602
  Ne 0.41617584 0.78570557 0.61888123
  He 0.62623596 0.53276062 0.65672302
  Ne 0.63290405 0.53533936 0.65169525
  He 0.61220551 0.53887939 0.67204285
  Ne 0.60961151 0.54550171 0.67713928
  He 0.60618591 0.52487946 0.65653229
  Ne 0.59965515 0.52227020 0.65140533
  He 0.62010956 0.51883698 0.67201996
  Ne 0.62271118 0.51227570 0.67705536
  He 0.73721313 0.41387939 0.54703522
  Ne 0.73462677 0.42049408 0.55212402
  He 0.73120117 0.39987946 0.53152466
  Ne 0.72467041 0.39727020 0.52640533
  He 0.74511719 0.39383698 0.54701233
  Ne 0.74772644 0.38726807 0.55205536
  He 0.75125885 0.40774536 0.53170776
  Ne 0.75791168 0.41030121 0.52669525
  He 0.62694550 0.77587128 0.54690552
  Ne 0.63362122 0.77343750 0.55192566
  He 0.61313629 0.76932526 0.53171539
  Ne 0.61074829 0.76261902 0.52677155
  He 0.60665894 0.78328705 0.54697418
  Ne 0.59999847 0.78572845 0.55204773
  He 0.73812866 0.39431763 0.65672302
  Ne 0.73572540 0.38760376 0.65177155
  He 0.73168182 0.40828705 0.67197418
  Ne 0.72500610 0.41075134 0.67704773
  He 0.74554443 0.41464233 0.65653992
  Ne 0.74800873 0.42125702 0.65146637
  He 0.75195312 0.40085602 0.67191315
  Ne 0.75864410 0.39842224 0.67694092
  He 0.67147827 0.41388702 0.48040009
  Ne 0.66647339 0.42053986 0.48294830
  He 0.68681335 0.39983368 0.48652649
  Ne 0.69189453 0.39724731 0.49311066
  He 0.67130280 0.39382172 0.47254181
  Ne 0.66616821 0.38727570 0.46992493
  He 0.68675995 0.40774536 0.46647644
  Ne 0.69178772 0.41035461 0.45989227
  He 0.60623932 0.34934235 0.48030853
  Ne 0.59966278 0.35437775 0.48291016
  He 0.62014008 0.33406067 0.48648834
  Ne 0.62267303 0.32907104 0.49313354
  He 0.62627411 0.34939575 0.47242737
  Ne 0.63288116 0.35449982 0.46984100
  He 0.61227417 0.33387756 0.46640778
  Ne 0.60964966 0.32877350 0.45987701
  He 0.56171417 0.39428711 0.48086548
  Ne 0.56675720 0.38763428 0.48329926
  He 0.54628754 0.40815735 0.48722839
  Ne 0.54117584 0.41062927 0.49388123
  He 0.56166840 0.41458130 0.47345734
  Ne 0.56668091 0.42126465 0.47102356
  He 0.54646301 0.40077209 0.46692657
  Ne 0.54148865 0.39838409 0.46019745
  He 0.62700653 0.45891571 0.48081207
  Ne 0.63363647 0.45381927 0.48327637
  He 0.61320496 0.47430420 0.48721313
  Ne 0.61075592 0.47931671 0.49387360
  He 0.60669708 0.45909119 0.47340393
  Ne 0.59996033 0.45411682 0.47099304
  He 0.62065887 0.47435760 0.46694946
  Ne 0.62310791 0.47943115 0.46028900
  He 0.73729706 0.45892334 0.59143066
  Ne 0.73466492 0.45378876 0.58488464
  He 0.73124695 0.47438049 0.60533142
  Ne 0.72467041 0.47940826 0.60792542
  He 0.74517822 0.45909882 0.61148071
  Ne 0.74773407 0.45408630 0.61814117
  He 0.75129700 0.47444153 0.59743500
  Ne 0.75787354 0.47952271 0.59485626
  He 0.73820496 0.34930420 0.61222839
  Ne 0.73577118 0.35430145 0.61887360
  He 0.73169708 0.33410645 0.59840393
  Ne 0.72498322 0.32915497 0.59600067
  He 0.74565887 0.34934998 0.59195709
  Ne 0.74812317 0.35442352 0.58528900
  He 0.75201416 0.33392334 0.60582733
  Ne 0.75864410 0.32884216 0.60829163
  He 0.56172943 0.53273773 0.59149933
  Ne 0.56681061 0.53536224 0.58488464
  He 0.54642487 0.53888702 0.60540009
  Ne 0.54141235 0.54555511 0.60796356
  He 0.56176758 0.52483368 0.61151886
  Ne 0.56687927 0.52223969 0.61811829
  He 0.54624939 0.51882935 0.59752655
  Ne 0.54111481 0.51227570 0.59489441
  He 0.67130280 0.53320312 0.61222839
  Ne 0.66619110 0.53567505 0.61888123
  He 0.68668365 0.53961182 0.59843445
  Ne 0.69169617 0.54627228 0.59599304
  He 0.67149353 0.52579498 0.59191895
  Ne 0.66654205 0.52339935 0.58520508
  He 0.68672180 0.51932526 0.60587311
  Ne 0.69178009 0.51263428 0.60831451
  He 0.37623596 0.53276062 0.65672302
  Ne 0.38290405 0.53533936 0.65169525
  He 0.36219788 0.53887939 0.67204285
  Ne 0.35959625 0.54550171 0.67714691
  He 0.35618591 0.52487946 0.65653992
  Ne 0.34963989 0.52226257 0.65140533
  He 0.37010956 0.51883698 0.67201996
  Ne 0.37271118 0.51227570 0.67705536
  He 0.49510193 0.39383698 0.54701233
  Ne 0.49771118 0.38726807 0.55205536
  He 0.50124359 0.40774536 0.53170776
  Ne 0.50789642 0.41030121 0.52669525
  He 0.48719788 0.41387177 0.54703522
  Ne 0.48459625 0.42049408 0.55212402
  He 0.48118591 0.39987946 0.53152466
  Ne 0.47463989 0.39726257 0.52639771
  He 0.37694550 0.77587128 0.54690552
  Ne 0.38362122 0.77343750 0.55192566
  He 0.36313629 0.76932526 0.53171539
  Ne 0.36074829 0.76261902 0.52677155
  He 0.35665894 0.78328705 0.54697418
  Ne 0.34999084 0.78572845 0.55204773
  He 0.49552917 0.41464233 0.65653992
  Ne 0.49799347 0.42125702 0.65146637
  He 0.50193787 0.40085602 0.67191315
  Ne 0.50862885 0.39842224 0.67694092
  He 0.48810577 0.39431763 0.65672302
  Ne 0.48570251 0.38759613 0.65177155
  He 0.48165894 0.40828705 0.67196655
  Ne 0.47499084 0.41075134 0.67704773
  He 0.42127991 0.39382172 0.47254181
  Ne 0.41614532 0.38727570 0.46992493
  He 0.43674469 0.40774536 0.46647644
  Ne 0.44177246 0.41035461 0.45989227
  He 0.42146301 0.41387939 0.48040009
  Ne 0.41645050 0.42053986 0.48294830
  He 0.43679810 0.39983368 0.48652649
  Ne 0.44187927 0.39724731 0.49311066
  He 0.37627411 0.34940338 0.47242737
  Ne 0.38286591 0.35449982 0.46984100
  He 0.36226654 0.33388519 0.46640778
  Ne 0.35963440 0.32877350 0.45987701
  He 0.35623932 0.34933472 0.48030853
  Ne 0.34964752 0.35437775 0.48291016
  He 0.37014008 0.33406067 0.48648834
  Ne 0.37267303 0.32907104 0.49313354
  He 0.31165314 0.41458130 0.47345734
  Ne 0.31668091 0.42126465 0.47102356
  He 0.29644012 0.40077972 0.46692657
  Ne 0.29145813 0.39838409 0.46018982
  He 0.31170654 0.39428711 0.48086548
  Ne 0.31675720 0.38763428 0.48329926
  He 0.29627228 0.40815735 0.48722839
  Ne 0.29116058 0.41062927 0.49388123
  He 0.35668945 0.45909119 0.47340393
  Ne 0.34996033 0.45411682 0.47099304
  He 0.37065125 0.47435760 0.46694946
  Ne 0.37310791 0.47943115 0.46028137
  He 0.37699127 0.45891571 0.48081207
  Ne 0.38362122 0.45381927 0.48327637
  He 0.36318970 0.47430420 0.48721313
  Ne 0.36074066 0.47931671 0.49387360
  He 0.49516296 0.45909882 0.61148071
  Ne 0.49772644 0.45408630 0.61814117
  He 0.50128937 0.47444153 0.59744263
  Ne 0.50787354 0.47952271 0.59485626
  He 0.48727417 0.45892334 0.59143829
  Ne 0.48463440 0.45378113 0.58488464
  He 0.48123169 0.47438049 0.60533142
  Ne 0.47465515 0.47940826 0.60792542
  He 0.49565887 0.34934998 0.59195709
  Ne 0.49810791 0.35442352 0.58528900
  He 0.50201416 0.33392334 0.60582733
  Ne 0.50863647 0.32884216 0.60829163
  He 0.48819733 0.34929657 0.61222076
  Ne 0.48574066 0.35430145 0.61887360
  He 0.48168945 0.33410645 0.59841156
  Ne 0.47496796 0.32915497 0.59600067
  He 0.31171417 0.53273773 0.59149933
  Ne 0.31679535 0.53536224 0.58488464
  He 0.29640198 0.53888702 0.60540009
  Ne 0.29138947 0.54555511 0.60796356
  He 0.31175995 0.52483368 0.61151123
  Ne 0.31687164 0.52223969 0.61811829
  He 0.29622650 0.51882935 0.59752655
  Ne 0.29108429 0.51226807 0.59489441
  He 0.42127991 0.53320312 0.61223602
  Ne 0.41617584 0.53567505 0.61887360
  He 0.43666077 0.53961182 0.59843445
  Ne 0.44168091 0.54627228 0.59599304
  He 0.42146301 0.52579498 0.59191895
  Ne 0.41651154 0.52339935 0.58520508
  He 0.43669128 0.51932526 0.60586548
  Ne 0.44176483 0.51263428 0.60831451
  He 0.62010193 0.76885986 0.42200470
  Ne 0.62271118 0.76229095 0.42704010
  He 0.62623596 0.78279114 0.40670776
  Ne 0.63290405 0.78536987 0.40167999
  He 0.73721313 0.66388702 0.29701996
  Ne 0.73462677 0.67050934 0.30211639
  He 0.73120117 0.64989471 0.28150940
  Ne 0.72467041 0.64728546 0.27639008
  He 0.74512482 0.64385223 0.29698944
  Ne 0.74772644 0.63729095 0.30202484
  He 0.75125885 0.65775299 0.28169250
  Ne 0.75791168 0.66030121 0.27668762
  He 0.60665894 0.53326416 0.29694366
  Ne 0.59999847 0.53569794 0.30201721
  He 0.62052917 0.53964233 0.28151703
  Ne 0.62299347 0.54627228 0.27644348
  He 0.62693787 0.52585602 0.29688263
  Ne 0.63362885 0.52342224 0.30191040
  He 0.61313629 0.51931000 0.28168488
  Ne 0.61074829 0.51260376 0.27674103
  He 0.73812866 0.64433289 0.40670776
  Ne 0.73572540 0.63760376 0.40174866
  He 0.73167419 0.65829468 0.42195892
  Ne 0.72500610 0.66075134 0.42703247
  He 0.74554443 0.66465759 0.40653229
  Ne 0.74800873 0.67127228 0.40145874
  He 0.75195312 0.65086365 0.42189789
  Ne 0.75864410 0.64842224 0.42692566
  He 0.67147827 0.66388702 0.23037720
  Ne 0.66646576 0.67055511 0.23293304
  He 0.68682098 0.64984131 0.23651123
  Ne 0.69189453 0.64725494 0.24308777
  He 0.67129517 0.64382935 0.22252655
  Ne 0.66616821 0.63729095 0.21990967
  He 0.60623932 0.59935760 0.23030853
  Ne 0.59966278 0.60439301 0.23289490
  He 0.62014008 0.58406830 0.23648834
  Ne 0.62267303 0.57909393 0.24311829
  He 0.62627411 0.59941101 0.22241974
  Ne 0.63288116 0.60451508 0.21982574
  He 0.56172180 0.64428711 0.23085785
  Ne 0.56675720 0.63764954 0.23328400
  He 0.54628754 0.65815735 0.23722076
  Ne 0.54117584 0.66062927 0.24386597
  He 0.62699890 0.70892334 0.23078918
  Ne 0.63363647 0.70381927 0.23326111
  He 0.61320496 0.72431946 0.23719788
  Ne 0.61075592 0.72933197 0.24385834
  He 0.73729706 0.70892334 0.34141541
  Ne 0.73466492 0.70379639 0.33487701
  He 0.73124695 0.72438812 0.35531616
  Ne 0.72466278 0.72941589 0.35791016
  He 0.74517059 0.70910645 0.36147308
  Ne 0.74773407 0.70409393 0.36814117
  He 0.75129700 0.72444916 0.34742737
  Ne 0.75788116 0.72953033 0.34484100
  He 0.73821259 0.59931183 0.36221313
  Ne 0.73576355 0.60432434 0.36887360
  He 0.73169708 0.58412170 0.34839630
  Ne 0.72498322 0.57917023 0.34600067
  He 0.74566650 0.59937286 0.34194946
  Ne 0.74812317 0.60444641 0.33528137
  He 0.75201416 0.58394623 0.35581207
  Ne 0.75864410 0.57885742 0.35827637
  He 0.54624176 0.76884460 0.34751892
  Ne 0.54111481 0.76230621 0.34487915
  He 0.56172943 0.78275299 0.34149170
  Ne 0.56681061 0.78537750 0.33486938
  He 0.67149353 0.77581024 0.34191895
  Ne 0.66654205 0.77340698 0.33519745
  He 0.68672180 0.76934052 0.35586548
  Ne 0.69178009 0.76266479 0.35829926
  He 0.67130280 0.78322601 0.36222839
  Ne 0.66619110 0.78570557 0.36886597
  He 0.35618591 0.77490997 0.40652466
  Ne 0.34963989 0.77229309 0.40139008
  He 0.37010193 0.76885986 0.42200470
  Ne 0.37271118 0.76229095 0.42704010
  He 0.37623596 0.78279114 0.40670776
  Ne 0.38290405 0.78536987 0.40167999
  He 0.49510956 0.64385223 0.29698944
  Ne 0.49771118 0.63729095 0.30202484
  He 0.50124359 0.65775299 0.28169250
  Ne 0.50789642 0.66030121 0.27667999
  He 0.48719788 0.66388702 0.29701996
  Ne 0.48459625 0.67050934 0.30211639
  He 0.48118591 0.64989471 0.28150940
  Ne 0.47463989 0.64727783 0.27639008
  He 0.37693787 0.52585602 0.29688263
  Ne 0.38362885 0.52342224 0.30191040
  He 0.36313629 0.51931000 0.28168488
  Ne 0.36074829 0.51260376 0.27674103
  He 0.35665894 0.53326416 0.29694366
  Ne 0.34999084 0.53569794 0.30201721
  He 0.37052917 0.53964233 0.28151703
  Ne 0.37299347 0.54627228 0.27644348
  He 0.49552917 0.66465759 0.40653229
  Ne 0.49799347 0.67127228 0.40145874
  He 0.50193787 0.65086365 0.42189789
  Ne 0.50862885 0.64842224 0.42692566
  He 0.48810577 0.64433289 0.40670776
  Ne 0.48570251 0.63760376 0.40174866
  He 0.48165894 0.65829468 0.42195892
  Ne 0.47499084 0.66075134 0.42703247
  He 0.42146301 0.66388702 0.23037720
  Ne 0.41644287 0.67055511 0.23293304
  He 0.43680573 0.64983368 0.23651123
  Ne 0.44187927 0.64725494 0.24308777
  He 0.42127991 0.64382935 0.22252655
  Ne 0.41614532 0.63728333 0.21990967
  He 0.35623932 0.59935760 0.23030090
  Ne 0.34964752 0.60439301 0.23289490
  He 0.37014008 0.58406830 0.23648834
  Ne 0.37267303 0.57909393 0.24311829
  He 0.37627411 0.59941101 0.22241974
  Ne 0.38286591 0.60450745 0.21982574
  He 0.31170654 0.64428711 0.23085022
  Ne 0.31675720 0.63764191 0.23328400
  He 0.29627228 0.65815735 0.23722076
  Ne 0.29116058 0.66062927 0.24386597
  He 0.31165314 0.66458130 0.22344971
  Ne 0.31668091 0.67126465 0.22100830
  He 0.37699127 0.70892334 0.23078918
  Ne 0.38362122 0.70381927 0.23326111
  He 0.36318970 0.72431946 0.23719788
  Ne 0.36074066 0.72933197 0.24385834
  He 0.35668945 0.70910645 0.22338867
  Ne 0.34996033 0.70413208 0.22098541
  He 0.49516296 0.70910645 0.36147308
  Ne 0.49772644 0.70409393 0.36814117
  He 0.50128174 0.72444153 0.34742737
  Ne 0.50787354 0.72953796 0.34484100
  He 0.48727417 0.70893097 0.34141541
  Ne 0.48463440 0.70379639 0.33487701
  He 0.48123169 0.72438812 0.35531616
  Ne 0.47464752 0.72941589 0.35791016
  He 0.49565887 0.59937286 0.34194946
  Ne 0.49810791 0.60444641 0.33528900
  He 0.50201416 0.58393860 0.35581207
  Ne 0.50863647 0.57886505 0.35827637
  He 0.48819733 0.59931183 0.36221313
  Ne 0.48574066 0.60432434 0.36887360
  He 0.48168945 0.58412170 0.34839630
  Ne 0.47496796 0.57917023 0.34600067
  He 0.31176758 0.77485657 0.36151123
  Ne 0.31687164 0.77227020 0.36810303
  He 0.29622650 0.76885223 0.34751892
  Ne 0.29109192 0.76230621 0.34487915
  He 0.31171417 0.78275299 0.34149170
  Ne 0.31679535 0.78537750 0.33486938
  He 0.42146301 0.77581024 0.34191895
  Ne 0.41651154 0.77341461 0.33519745
  He 0.43669891 0.76934052 0.35586548
  Ne 0.44176483 0.76266479 0.35829926
  He 0.42127228 0.78322601 0.36222839
  Ne 0.41617584 0.78570557 0.36886597
  He 0.62623596 0.53276062 0.40670776
  Ne 0.63290405 0.53533936 0.40167999
  He 0.61220551 0.53887939 0.42202759
  Ne 0.60961151 0.54550171 0.42713165
  He 0.60618591 0.52487946 0.40651703
  Ne 0.59965515 0.52227020 0.40139008
  He 0.62010956 0.51883698 0.42200470
  Ne 0.62271118 0.51227570 0.42704010
  He 0.73721313 0.41387177 0.29701996
  Ne 0.73462677 0.42049408 0.30211639
  He 0.73120117 0.39987946 0.28150940
  Ne 0.72467041 0.39727020 0.27639008
  He 0.74512482 0.39383698 0.29698944
  Ne 0.74772644 0.38727570 0.30202484
  He 0.75125885 0.40774536 0.28169250
  Ne 0.75791168 0.41030121 0.27667999
  He 0.60665894 0.28324890 0.29694366
  Ne 0.59999847 0.28568268 0.30201721
  He 0.62052917 0.28962708 0.28151703
  Ne 0.62299347 0.29625702 0.27644348
  He 0.62693787 0.27584076 0.29688263
  Ne 0.63362885 0.27340698 0.30191040
  He 0.73812866 0.39431763 0.40670776
  Ne 0.73572540 0.38760376 0.40175629
  He 0.73168182 0.40828705 0.42195892
  Ne 0.72500610 0.41075134 0.42703247
  He 0.74554443 0.41464233 0.40653229
  Ne 0.74800873 0.42125702 0.40145874
  He 0.67147827 0.41388702 0.23038483
  Ne 0.66646576 0.42053986 0.23293304
  He 0.68682098 0.39983368 0.23651123
  Ne 0.69189453 0.39724731 0.24308777
  He 0.67130280 0.39382172 0.22252655
  Ne 0.66616821 0.38727570 0.21990967
  He 0.60623932 0.34934235 0.23030853
  Ne 0.59966278 0.35437775 0.23289490
  He 0.62014008 0.33405304 0.23648071
  Ne 0.62267303 0.32907867 0.24311829
  He 0.62627411 0.34939575 0.22241974
  Ne 0.63288116 0.35450745 0.21982574
  He 0.56171417 0.39428711 0.23085022
  Ne 0.56675720 0.38763428 0.23328400
  He 0.54628754 0.40815735 0.23722076
  Ne 0.54117584 0.41062927 0.24386597
  He 0.56166840 0.41458130 0.22344208
  Ne 0.56668091 0.42126465 0.22101593
  He 0.62700653 0.45891571 0.23079681
  Ne 0.63363647 0.45381927 0.23326111
  He 0.61320496 0.47430420 0.23719788
  Ne 0.61075592 0.47931671 0.24385834
  He 0.60669708 0.45909119 0.22338867
  Ne 0.59996033 0.45411682 0.22098541
  He 0.73729706 0.45892334 0.34142303
  Ne 0.73466492 0.45378876 0.33486938
  He 0.73124695 0.47438049 0.35531616
  Ne 0.72466278 0.47940826 0.35791016
  He 0.74517059 0.45910645 0.36147308
  Ne 0.74773407 0.45408630 0.36814117
  He 0.75129700 0.47444153 0.34741974
  Ne 0.75787354 0.47952271 0.34484100
  He 0.73821259 0.34929657 0.36221313
  Ne 0.73576355 0.35430908 0.36887360
  He 0.73169708 0.33410645 0.34839630
  Ne 0.72498322 0.32915497 0.34600067
  He 0.74566650 0.34934998 0.34194946
  Ne 0.74811554 0.35441589 0.33528900
  He 0.75201416 0.33392334 0.35581207
  Ne 0.75864410 0.32884216 0.35827637
  He 0.56172943 0.53273773 0.34149170
  Ne 0.56681061 0.53536224 0.33487701
  He 0.54642487 0.53888702 0.35539246
  Ne 0.54141235 0.54555511 0.35794830
  He 0.56177521 0.52483368 0.36151123
  Ne 0.56687164 0.52223969 0.36810303
  He 0.54624939 0.51882935 0.34751892
  Ne 0.54111481 0.51226807 0.34487915
  He 0.67130280 0.53320312 0.36222839
  Ne 0.66619110 0.53567505 0.36886597
  He 0.68668365 0.53961182 0.34843445
  Ne 0.69169617 0.54627228 0.34598541
  He 0.67149353 0.52579498 0.34191895
  Ne 0.66654205 0.52339935 0.33519745
  He 0.68672180 0.51931763 0.35586548
  Ne 0.69178009 0.51263428 0.35829926
  He 0.62623596 0.28275299 0.65671539
  Ne 0.63290405 0.28532410 0.65169525
  He 0.61219788 0.28887177 0.67205048
  Ne 0.60961151 0.29548645 0.67713928
  He 0.60618591 0.27487946 0.65653229
  Ne 0.59965515 0.27227020 0.65140533
  He 0.62010956 0.26882935 0.67201996
  Ne 0.62271118 0.26226807 0.67705536
  He 0.56172943 0.28272247 0.59149933
  Ne 0.56681061 0.28534698 0.58488464
  He 0.54642487 0.28887177 0.60540009
  Ne 0.54141235 0.29552460 0.60796356
  He 0.56177521 0.27482605 0.61151886
  Ne 0.56687164 0.27223969 0.61811829
  He 0.54624176 0.26881409 0.59751892
  Ne 0.54111481 0.26226807 0.59489441
  He 0.67130280 0.28318787 0.61222839
  Ne 0.66619110 0.28565979 0.61888123
  He 0.68668365 0.28959656 0.59843445
  Ne 0.69169617 0.29625702 0.59599304
  He 0.67149353 0.27577972 0.59191895
  Ne 0.66654205 0.27338409 0.58520508
  He 0.68672180 0.26931000 0.60587311
  Ne 0.69178009 0.26263428 0.60831451
  He 0.37623596 0.28275299 0.65671539
  Ne 0.38290405 0.28532410 0.65169525
  He 0.36219788 0.28887177 0.67205048
  Ne 0.35959625 0.29548645 0.67713928
  He 0.35618591 0.27487946 0.65653992
  Ne 0.34963989 0.27226257 0.65140533
  He 0.37010956 0.26882935 0.67201996
  Ne 0.37271118 0.26226807 0.67705536
  He 0.31171417 0.28272247 0.59149933
  Ne 0.31679535 0.28534698 0.58488464
  He 0.29640198 0.28886414 0.60540009
  Ne 0.29138947 0.29552460 0.60796356
  He 0.31175995 0.27482605 0.61151886
  Ne 0.31687164 0.27223969 0.61811829
  He 0.29622650 0.26881409 0.59752655
  Ne 0.29108429 0.26226807 0.59489441
  He 0.42127991 0.28318787 0.61223602
  Ne 0.41617584 0.28565979 0.61887360
  He 0.43666077 0.28959656 0.59843445
  Ne 0.44168091 0.29625702 0.59599304
  He 0.42146301 0.27577972 0.59191895
  Ne 0.41651154 0.27338409 0.58520508
  He 0.43669891 0.26931000 0.60587311
  Ne 0.44176483 0.26263428 0.60831451
  He 0.60665894 0.28324890 0.54697418
  Ne 0.59999847 0.28568268 0.55204773
  He 0.62052917 0.28962708 0.53154755
  Ne 0.62299347 0.29625702 0.52646637
  He 0.62693787 0.27584076 0.54690552
  Ne 0.63362122 0.27340698 0.55192566
  He 0.61312866 0.26930237 0.53171539
  Ne 0.61074829 0.26259613 0.52677155
  He 0.35665894 0.28324890 0.54697418
  Ne 0.34999084 0.28568268 0.55204773
  He 0.37052917 0.28962708 0.53154755
  Ne 0.37299347 0.29625702 0.52646637
  He 0.37694550 0.27584076 0.54690552
  Ne 0.38362122 0.27340698 0.55192566
  He 0.36312866 0.26930237 0.53171539
  Ne 0.36074829 0.26259613 0.52677155
  He 0.62623596 0.28275299 0.40670013
  Ne 0.63290405 0.28532410 0.40168762
  He 0.61219788 0.28887177 0.42203522
  Ne 0.60961151 0.29548645 0.42712402
  He 0.60618591 0.27487946 0.40651703
  Ne 0.59965515 0.27227020 0.40139008
  He 0.62010956 0.26882935 0.42200470
  Ne 0.62271118 0.26226807 0.42704010
  He 0.56172943 0.28272247 0.34149170
  Ne 0.56681061 0.28534698 0.33487701
  He 0.54641724 0.28887177 0.35540009
  Ne 0.54141235 0.29552460 0.35794830
  He 0.56177521 0.27482605 0.36151886
  Ne 0.56687164 0.27223969 0.36810303
  He 0.54624176 0.26881409 0.34751892
  Ne 0.54111481 0.26226807 0.34487915
  He 0.67130280 0.28318787 0.36222839
  Ne 0.66619110 0.28565979 0.36886597
  He 0.68668365 0.28959656 0.34843445
  Ne 0.69169617 0.29625702 0.34598541
  He 0.67149353 0.27577972 0.34191895
  Ne 0.66654205 0.27338409 0.33519745
  He 0.68672180 0.26931000 0.35586548
  Ne 0.69178009 0.26263428 0.35829926
  He 0.37623596 0.28275299 0.40670013
  Ne 0.38290405 0.28532410 0.40168762
  He 0.36219025 0.28887177 0.42203522
  Ne 0.35959625 0.29548645 0.42712402
  He 0.35618591 0.27487946 0.40652466
  Ne 0.34963989 0.27226257 0.40139008
  He 0.37010956 0.26882935 0.42200470
  Ne 0.37271118 0.26226807 0.42704010
  He 0.31171417 0.28272247 0.34149170
  Ne 0.31679535 0.28534698 0.33487701
  He 0.29640198 0.28886414 0.35539246
  Ne 0.29138947 0.29552460 0.35794830
  He 0.31176758 0.27482605 0.36151123
  Ne 0.31687164 0.27223969 0.36810303
  He 0.29622650 0.26882172 0.34751892
  Ne 0.29108429 0.26226807 0.34487915
  He 0.42127228 0.28318787 0.36222839
  Ne 0.41617584 0.28565979 0.36886597
  He 0.43666077 0.28959656 0.34843445
  Ne 0.44168091 0.29625702 0.34598541
  He 0.42146301 0.27577972 0.34191895
  Ne 0.41651154 0.27338409 0.33519745
  He 0.43669891 0.26931000 0.35586548
  Ne 0.44176483 0.26263428 0.35829926
  He 0.24509430 0.64385223 0.54701233
  Ne 0.24769592 0.63728333 0.55205536
  He 0.25122833 0.65775299 0.53170776
  Ne 0.25788879 0.66030121 0.52669525
  He 0.23718262 0.66389465 0.54703522
  Ne 0.23459625 0.67050171 0.55212402
  He 0.24551392 0.66464996 0.65653992
  Ne 0.24797821 0.67127228 0.65146637
  He 0.25192261 0.65086365 0.67191315
  Ne 0.25861359 0.64842224 0.67694092
  He 0.23809814 0.64433289 0.65672302
  Ne 0.23569489 0.63760376 0.65176392
  He 0.24514008 0.70910645 0.61148834
  Ne 0.24769592 0.70410156 0.61814117
  He 0.25126648 0.72444916 0.59744263
  Ne 0.25785065 0.72953033 0.59485626
  He 0.23726654 0.70892334 0.59143066
  Ne 0.23463440 0.70379639 0.58489227
  He 0.24562836 0.59936523 0.59196472
  Ne 0.24809265 0.60444641 0.58528900
  He 0.25198364 0.58394623 0.60582733
  Ne 0.25861359 0.57885742 0.60829163
  He 0.23817444 0.59931183 0.61222839
  Ne 0.23574066 0.60431671 0.61887360
  He 0.24509430 0.39383698 0.54701233
  Ne 0.24769592 0.38726807 0.55205536
  He 0.25122833 0.40774536 0.53170776
  Ne 0.25788879 0.41030121 0.52669525
  He 0.23718262 0.41387939 0.54703522
  Ne 0.23459625 0.42048645 0.55212402
  He 0.24551392 0.41464233 0.65653992
  Ne 0.24797821 0.42125702 0.65146637
  He 0.25192261 0.40085602 0.67191315
  Ne 0.25861359 0.39842224 0.67694092
  He 0.23809814 0.39431763 0.65672302
  Ne 0.23569489 0.38760376 0.65177155
  He 0.24514008 0.45909882 0.61148071
  Ne 0.24769592 0.45408630 0.61814117
  He 0.25127411 0.47444153 0.59743500
  Ne 0.25785065 0.47952271 0.59485626
  He 0.23726654 0.45892334 0.59143829
  Ne 0.23463440 0.45378876 0.58488464
  He 0.24563599 0.34934998 0.59195709
  Ne 0.24809265 0.35442352 0.58528900
  He 0.25198364 0.33392334 0.60582733
  Ne 0.25861359 0.32884216 0.60829163
  He 0.23817444 0.34930420 0.61222839
  Ne 0.23574066 0.35430145 0.61887360
  He 0.24509430 0.64385223 0.29698944
  Ne 0.24769592 0.63728333 0.30202484
  He 0.25122833 0.65775299 0.28169250
  Ne 0.25788879 0.66030121 0.27667999
  He 0.23719025 0.66388702 0.29701996
  Ne 0.23459625 0.67050934 0.30211639
  He 0.24551392 0.66465759 0.40653229
  Ne 0.24797821 0.67127228 0.40145874
  He 0.25192261 0.65086365 0.42189789
  Ne 0.25861359 0.64842224 0.42692566
  He 0.23809814 0.64433289 0.40670776
  Ne 0.23569489 0.63760376 0.40174866
  He 0.24514008 0.70910645 0.36147308
  Ne 0.24769592 0.70409393 0.36814117
  He 0.25126648 0.72444916 0.34742737
  Ne 0.25785065 0.72953033 0.34484100
  He 0.23726654 0.70892334 0.34141541
  Ne 0.23463440 0.70379639 0.33487701
  He 0.24563599 0.59937286 0.34194946
  Ne 0.24809265 0.60444641 0.33528137
  He 0.25198364 0.58394623 0.35581207
  Ne 0.25861359 0.57885742 0.35827637
  He 0.23818207 0.59931183 0.36221313
  Ne 0.23573303 0.60432434 0.36886597
  He 0.24509430 0.39383698 0.29698944
  Ne 0.24769592 0.38727570 0.30202484
  He 0.25122833 0.40774536 0.28169250
  Ne 0.25788879 0.41030121 0.27667999
  He 0.23719025 0.41387177 0.29701996
  Ne 0.23459625 0.42049408 0.30211639
  He 0.24551392 0.41464233 0.40653229
  Ne 0.24797821 0.42125702 0.40145874
  He 0.25192261 0.40085602 0.42189789
  Ne 0.25861359 0.39842224 0.42692566
  He 0.24514008 0.45909882 0.36147308
  Ne 0.24769592 0.45408630 0.36814117
  He 0.25126648 0.47444153 0.34741974
  Ne 0.25784302 0.47952271 0.34484100
  He 0.23726654 0.45892334 0.34142303
  Ne 0.23463440 0.45378876 0.33486938
  He 0.24563599 0.34934998 0.34194946
  Ne 0.24809265 0.35441589 0.33528900
  He 0.25198364 0.33392334 0.35581207
  Ne 0.25861359 0.32884216 0.35827637
  He 0.37693787 0.77587128 0.29688263
  Ne 0.38362885 0.77343750 0.30191040
  He 0.36313629 0.76932526 0.28168488
  Ne 0.36074829 0.76261902 0.27674103
  He 0.35665894 0.78328705 0.29694366
  Ne 0.34999084 0.78572845 0.30201721
  He 0.62693787 0.77587128 0.29688263
  Ne 0.63362885 0.77343750 0.30191040
  He 0.61313629 0.76932526 0.28168488
  Ne 0.61074829 0.76261902 0.27674103
  He 0.60665894 0.78328705 0.29694366
  Ne 0.59999847 0.78572845 0.30201721
  He 0.42127991 0.39382172 0.72255707
  Ne 0.41614532 0.38727570 0.71993256
  He 0.43673706 0.40774536 0.71649170
  Ne 0.44177246 0.41035461 0.70989990
  He 0.42146301 0.41387939 0.73040771
  Ne 0.41645050 0.42053986 0.73296356
  He 0.43680573 0.39983368 0.73654175
  Ne 0.44187927 0.39724731 0.74311066
  He 0.37627411 0.34940338 0.72245789
  Ne 0.38286591 0.35449982 0.71987152
  He 0.36226654 0.33388519 0.71643829
  Ne 0.35964203 0.32877350 0.70990753
  He 0.35623932 0.34934235 0.73033142
  Ne 0.34964752 0.35437775 0.73292542
  He 0.37014008 0.33405304 0.73651123
  Ne 0.37268066 0.32907104 0.74315643
  He 0.31165314 0.41458130 0.72347260
  Ne 0.31668091 0.42126465 0.72103882
  He 0.29644012 0.40077209 0.71694183
  Ne 0.29146576 0.39838409 0.71021271
  He 0.31170654 0.39428711 0.73088074
  Ne 0.31675720 0.38763428 0.73331451
  He 0.29627228 0.40815735 0.73724365
  Ne 0.29116058 0.41062927 0.74388885
  He 0.35668945 0.45909119 0.72341919
  Ne 0.34996033 0.45411682 0.72100830
  He 0.37065125 0.47435760 0.71696472
  Ne 0.37310791 0.47943115 0.71029663
  He 0.37699127 0.45891571 0.73082733
  Ne 0.38362122 0.45381927 0.73329163
  He 0.36318970 0.47430420 0.73722076
  Ne 0.36074066 0.47931671 0.74388885
  He 0.67129517 0.64382935 0.72254944
  Ne 0.66616821 0.63728333 0.71993256
  He 0.68675232 0.65774536 0.71649170
  Ne 0.69178772 0.66035461 0.70989990
  He 0.67147827 0.66388702 0.73040771
  Ne 0.66646576 0.67055511 0.73296356
  He 0.68682098 0.64983368 0.73654175
  Ne 0.69189453 0.64725494 0.74311066
  He 0.62628174 0.59941101 0.72245789
  Ne 0.63287354 0.60450745 0.71987152
  He 0.61227417 0.58389282 0.71643829
  Ne 0.60964966 0.57878876 0.70990753
  He 0.60623932 0.59935760 0.73033905
  Ne 0.59966278 0.60439301 0.73292542
  He 0.62014008 0.58406830 0.73651123
  Ne 0.62268066 0.57908630 0.74315643
  He 0.56166840 0.66458130 0.72347260
  Ne 0.56668091 0.67126465 0.72103882
  He 0.54646301 0.65077209 0.71694183
  Ne 0.54148865 0.64838409 0.71021271
  He 0.56172180 0.64428711 0.73088074
  Ne 0.56675720 0.63764954 0.73331451
  He 0.54628754 0.65815735 0.73724365
  Ne 0.54117584 0.66062927 0.74388885
  He 0.60669708 0.70910645 0.72341919
  Ne 0.59996033 0.70413208 0.72100830
  He 0.62065887 0.72437286 0.71696472
  Ne 0.62310791 0.72944641 0.71030426
  He 0.62699890 0.70892334 0.73081970
  Ne 0.63363647 0.70381927 0.73329163
  He 0.61320496 0.72431946 0.73722076
  Ne 0.61075592 0.72933197 0.74388885
  He 0.42127991 0.64382935 0.72255707
  Ne 0.41614532 0.63728333 0.71993256
  He 0.43673706 0.65774536 0.71649170
  Ne 0.44177246 0.66035461 0.70989990
  He 0.42146301 0.66388702 0.73040771
  Ne 0.41644287 0.67055511 0.73296356
  He 0.43680573 0.64983368 0.73654175
  Ne 0.44187927 0.64725494 0.74311066
  He 0.37627411 0.59941101 0.72245789
  Ne 0.38286591 0.60450745 0.71987152
  He 0.36226654 0.58389282 0.71643829
  Ne 0.35964203 0.57878876 0.70990753
  He 0.35623932 0.59935760 0.73033142
  Ne 0.34964752 0.60439301 0.73292542
  He 0.37014008 0.58406830 0.73651123
  Ne 0.37268066 0.57908630 0.74315643
  He 0.31165314 0.66458130 0.72347260
  Ne 0.31668091 0.67126465 0.72103882
  He 0.29644012 0.65077209 0.71694183
  Ne 0.29146576 0.64838409 0.71021271
  He 0.31170654 0.64428711 0.73088074
  Ne 0.31675720 0.63764191 0.73331451
  He 0.35668945 0.70910645 0.72341919
  Ne 0.34996033 0.70413208 0.72100830
  He 0.37065125 0.72437286 0.71696472
  Ne 0.37310791 0.72944641 0.71029663
  He 0.37699127 0.70892334 0.73081970
  Ne 0.38362122 0.70381927 0.73329163
  He 0.36318970 0.72431946 0.73722076
  Ne 0.36074066 0.72933197 0.74388885
  He 0.67130280 0.39382172 0.72255707
  Ne 0.66616821 0.38727570 0.71993256
  He 0.68675232 0.40774536 0.71649170
  Ne 0.69178772 0.41035461 0.70989990
  He 0.67147827 0.41388702 0.73041534
  Ne 0.66647339 0.42053986 0.73296356
  He 0.68682098 0.39983368 0.73654175
  Ne 0.69189453 0.39724731 0.74311066
  He 0.62628174 0.34939575 0.72245789
  Ne 0.63287354 0.35449982 0.71987152
  He 0.61227417 0.33387756 0.71643829
  Ne 0.60964966 0.32877350 0.70990753
  He 0.60623932 0.34934235 0.73033905
  Ne 0.59966278 0.35437775 0.73292542
  He 0.62014008 0.33405304 0.73651123
  Ne 0.62268066 0.32907104 0.74315643
  He 0.56166840 0.41458130 0.72347260
  Ne 0.56668091 0.42126465 0.72103882
  He 0.54646301 0.40077209 0.71694183
  Ne 0.54148865 0.39838409 0.71021271
  He 0.56171417 0.39428711 0.73088074
  Ne 0.56675720 0.38763428 0.73331451
  He 0.54628754 0.40815735 0.73724365
  Ne 0.54117584 0.41062927 0.74388885
  He 0.60669708 0.45909119 0.72341919
  Ne 0.59996033 0.45411682 0.72100830
  He 0.62065887 0.47435760 0.71696472
  Ne 0.62310791 0.47943115 0.71030426
  He 0.62700653 0.45891571 0.73081970
  Ne 0.63363647 0.45381927 0.73329163
  He 0.61320496 0.47430420 0.73722839
  Ne 0.61075592 0.47931671 0.74388885
  He 0.43685150 0.40756989 0.21647644
  Xe 0.45413208 0.41602325 0.19420624
  Kr 0.46277618 0.42024994 0.18307495
  He 0.36247253 0.33390045 0.21631622
  Xe 0.35402679 0.31665802 0.19401550
  Kr 0.34980774 0.30803680 0.18286133
  He 0.29640198 0.40060425 0.21701050
  Xe 0.27947235 0.39212799 0.19447327
  Kr 0.27100372 0.38789368 0.18321228
  He 0.37077332 0.47425842 0.21690369
  Xe 0.37933350 0.49114227 0.19437408
  Kr 0.38361359 0.49958038 0.18310547
  He 0.61201477 0.78887177 0.67199707
  Xe 0.60286713 0.81105804 0.68903351
  Kr 0.59828949 0.82215118 0.69754791
  He 0.54631042 0.78875732 0.60556030
  Xe 0.52915192 0.81091309 0.61454010
  Kr 0.52057648 0.82199097 0.61902618
  He 0.68675232 0.78962708 0.59856415
  Xe 0.70387268 0.81218719 0.59057617
  Kr 0.71243286 0.82347107 0.58657837
  He 0.36201477 0.78887177 0.67199707
  Xe 0.35288239 0.81105804 0.68903351
  Kr 0.34832001 0.82215118 0.69755554
  He 0.29629517 0.78875732 0.60556030
  Xe 0.27913666 0.81091309 0.61454010
  Kr 0.27056122 0.82199097 0.61902618
  He 0.43671417 0.78963470 0.59856415
  Xe 0.45381927 0.81220245 0.59056854
  Kr 0.46236420 0.82349396 0.58656311
  He 0.62033844 0.78971863 0.53153992
  Xe 0.62825012 0.81226349 0.51435852
  Kr 0.63220978 0.82353973 0.50577545
  He 0.37034607 0.78971863 0.53153992
  Xe 0.37827301 0.81226349 0.51436615
  Kr 0.38223267 0.82353210 0.50577545
  He 0.61472321 0.78861237 0.42260742
  He 0.60813904 0.77323914 0.40597534
  He 0.68685913 0.65755463 0.21646881
  Xe 0.70413208 0.66596985 0.19417572
  Kr 0.71276855 0.67018127 0.18302917
  He 0.61246490 0.58391571 0.21631622
  Xe 0.60398865 0.56668091 0.19402313
  Kr 0.59975433 0.55805969 0.18286896
  He 0.54579926 0.64898682 0.21902466
  He 0.56230164 0.66410065 0.22608948
  He 0.60718536 0.70843506 0.22583771
  He 0.62246704 0.72497559 0.21899414
  He 0.56228638 0.77301788 0.35942841
  He 0.54584503 0.78852081 0.35294342
  He 0.68675232 0.78962708 0.34858704
  Xe 0.70388031 0.81220245 0.34062958
  Kr 0.71244812 0.82348633 0.33665466
  He 0.36201477 0.78887177 0.42198181
  Xe 0.35288239 0.81105804 0.43901825
  Kr 0.34832001 0.82215118 0.44754028
  He 0.43685913 0.65755463 0.21647644
  Xe 0.45414734 0.66596222 0.19419861
  Kr 0.46279144 0.67017365 0.18305206
  He 0.36247253 0.58391571 0.21631622
  Xe 0.35402679 0.56667328 0.19401550
  Kr 0.34980774 0.55805206 0.18286133
  He 0.29640198 0.65059662 0.21701050
  Xe 0.27947235 0.64211273 0.19448090
  Kr 0.27101135 0.63787079 0.18321991
  He 0.37077332 0.72427368 0.21691132
  Xe 0.37932587 0.74116516 0.19438171
  Kr 0.38360596 0.74961853 0.18312073
  He 0.29630280 0.78874969 0.35557556
  Xe 0.27915192 0.81089783 0.36459351
  Kr 0.27057648 0.82197571 0.36910248
  He 0.43671417 0.78963470 0.34857941
  Xe 0.45382690 0.81221771 0.34062958
  Kr 0.46237946 0.82350922 0.33664703
  He 0.61296082 0.26943207 0.28159332
  Xe 0.60449219 0.24694824 0.26460266
  Kr 0.60025787 0.23570251 0.25610352
  He 0.75196075 0.40093994 0.42192841
  Xe 0.77455139 0.39289093 0.43898010
  Kr 0.78585052 0.38887024 0.44750977
  He 0.68685913 0.40756989 0.21647644
  Xe 0.70411682 0.41603088 0.19419098
  Kr 0.71275330 0.42026520 0.18305206
  He 0.61246490 0.33390045 0.21631622
  Xe 0.60398865 0.31666565 0.19402313
  Kr 0.59975433 0.30804443 0.18286896
  He 0.54642487 0.40059662 0.21700287
  Xe 0.52951050 0.39212036 0.19445801
  Kr 0.52105713 0.38788605 0.18318176
  He 0.62079620 0.47425079 0.21690369
  Xe 0.62936401 0.49113464 0.19438171
  Kr 0.63365173 0.49958038 0.18311310
  Ne 0.72473907 0.22953033 0.60784149
  Kr 0.75036621 0.19660187 0.62224579
  Xe 0.75891113 0.18563080 0.62705231
  Ne 0.50778198 0.22967529 0.59494781
  Kr 0.51000977 0.18865967 0.61112976
  Xe 0.51074982 0.17498779 0.61652374
  Ne 0.61080933 0.22949982 0.49375153
  Kr 0.62711334 0.18854523 0.49607086
  Xe 0.63254547 0.17488861 0.49684143
  Ne 0.62300873 0.22962952 0.71041870
  Kr 0.63745117 0.19673920 0.73607635
  Xe 0.64226532 0.18577576 0.74462891
  Ne 0.47472382 0.22953796 0.60784149
  Kr 0.47245789 0.18914795 0.62551117
  Xe 0.47170258 0.17568207 0.63140106
  Ne 0.25775146 0.22967529 0.59494781
  Kr 0.23181152 0.19644928 0.60805511
  Xe 0.22316742 0.18537140 0.61242676
  Ne 0.36079407 0.22949982 0.49375153
  Kr 0.34316254 0.18909454 0.49604034
  Xe 0.33728790 0.17562866 0.49679565
  Ne 0.37301636 0.22962952 0.71041870
  Kr 0.35987091 0.19640350 0.73633575
  Xe 0.35549164 0.18532562 0.74497223
  Ne 0.72473907 0.22953033 0.35782623
  Kr 0.75061035 0.19628906 0.34463501
  Xe 0.75923920 0.18521118 0.34023285
  Ne 0.50778198 0.22967529 0.34493256
  Kr 0.50997162 0.18932343 0.32717133
  Xe 0.51070404 0.17587280 0.32124329
  Ne 0.62301636 0.22963715 0.46040344
  Kr 0.64073181 0.18927002 0.45819855
  Xe 0.64664459 0.17581177 0.45746613
  Ne 0.47472382 0.22953796 0.35783386
  Kr 0.47242737 0.18856049 0.34156799
  Xe 0.47166443 0.17490387 0.33614349
  Ne 0.25775146 0.22967529 0.34493256
  Kr 0.23209381 0.19680023 0.33045959
  Xe 0.22353363 0.18584442 0.32563782
  Ne 0.36079407 0.22949982 0.24373627
  Kr 0.34642029 0.19655609 0.21810913
  Xe 0.34162903 0.18557739 0.20957184
  Ne 0.37302399 0.22963715 0.46041107
  Kr 0.35680389 0.18863678 0.45816803
  Xe 0.35139465 0.17497253 0.45742035
  Ne 0.79100037 0.26233673 0.59495544
  Kr 0.82261658 0.23416901 0.60742950
  Xe 0.83315277 0.22477722 0.61158752
  Ne 0.75778198 0.22967529 0.59494781
  Kr 0.78591156 0.19802856 0.60742950
  Xe 0.79528809 0.18748474 0.61159515
  Ne 0.79100037 0.26233673 0.34494019
  Kr 0.82231140 0.23443604 0.33116150
  Xe 0.83274841 0.22513580 0.32656097
  Ne 0.75778198 0.22967529 0.34493256
  Kr 0.78564453 0.19833374 0.33113861
  Xe 0.79492950 0.18788910 0.32653809
  He 0.23106384 0.65000153 0.53160858
  Xe 0.20873260 0.64141846 0.51447296
  Kr 0.19756317 0.63712311 0.50590515
  He 0.23159027 0.65841675 0.67183685
  Xe 0.20899963 0.66695404 0.68865204
  Kr 0.19770050 0.67122650 0.69705200
  He 0.23123169 0.72448730 0.60517120
  Xe 0.20895386 0.74176788 0.61360931
  Kr 0.19782257 0.75040436 0.61783600
  He 0.23177338 0.58402252 0.59829712
  Xe 0.20926666 0.56703186 0.58989716
  Kr 0.19800568 0.55854034 0.58569336
  He 0.23106384 0.39998627 0.53160858
  Xe 0.20873260 0.39138031 0.51448059
  Kr 0.19757080 0.38708496 0.50591278
  He 0.23159027 0.40839386 0.67183685
  Xe 0.20898438 0.41690063 0.68865967
  Kr 0.19768524 0.42115784 0.69706726
  He 0.23124695 0.47450256 0.60516357
  Xe 0.20898438 0.49181366 0.61360168
  Kr 0.19786072 0.50046539 0.61782074
  He 0.23177338 0.33402252 0.59828949
  Xe 0.20924377 0.31704712 0.58988953
  Kr 0.19798279 0.30856323 0.58568573
  He 0.23105621 0.65000153 0.28159332
  Xe 0.20871735 0.64141083 0.26447296
  Kr 0.19754791 0.63711548 0.25591278
  He 0.23159027 0.65841675 0.42182159
  Xe 0.20899963 0.66695404 0.43863678
  Kr 0.19770050 0.67122650 0.44703674
  He 0.23123169 0.72449493 0.35514832
  Xe 0.20895386 0.74176788 0.36357880
  Kr 0.19781494 0.75041199 0.36779022
  He 0.23178101 0.58403015 0.34826660
  Xe 0.20927429 0.56703949 0.33984375
  Kr 0.19802094 0.55854797 0.33562469
  He 0.23106384 0.39998627 0.28160095
  Xe 0.20872498 0.39138031 0.26448059
  Kr 0.19755554 0.38707733 0.25591278
  He 0.24056244 0.39480591 0.40600586
  He 0.23367310 0.41006470 0.42256927
  He 0.23123932 0.47450256 0.35514069
  Xe 0.20898438 0.49181366 0.36356354
  Kr 0.19785309 0.50046539 0.36777496
  He 0.23379517 0.33341980 0.34660339
  He 0.24081421 0.34992218 0.36175537
  Ne 0.79100037 0.51233673 0.34494019
  Kr 0.83135223 0.51006317 0.32717896
  Xe 0.84480286 0.50930786 0.32125854
  Ne 0.79118347 0.29540253 0.35784912
  Kr 0.82440186 0.26948547 0.34466553
  Xe 0.83547211 0.26084900 0.34027100
  Ne 0.79101562 0.41053009 0.24377441
  Kr 0.82427216 0.39735413 0.21790314
  Xe 0.83535767 0.39296722 0.20927429
  Ne 0.79100037 0.76236725 0.59495544
  Kr 0.82425690 0.78826141 0.60807800
  Xe 0.83534241 0.79689026 0.61245728
  Ne 0.79119110 0.54543304 0.60787201
  Kr 0.83158112 0.54763031 0.62554169
  Xe 0.84504700 0.54835510 0.63143158
  Ne 0.79121399 0.64853668 0.71036530
  Kr 0.82442474 0.66177368 0.73625183
  Xe 0.83550262 0.66618347 0.74488068
  Ne 0.79101562 0.66052246 0.49378967
  Kr 0.83138275 0.67823029 0.49607849
  Xe 0.84484100 0.68412781 0.49684143
  Ne 0.79100037 0.51233673 0.59495544
  Kr 0.83200836 0.51003265 0.61113739
  Xe 0.84568024 0.50926208 0.61653137
  Ne 0.79119110 0.29540253 0.60787201
  Kr 0.82408905 0.26972961 0.62226868
  Xe 0.83506012 0.26117706 0.62705994
  Ne 0.79120636 0.39854431 0.71035767
  Kr 0.82413483 0.38419342 0.73602295
  Xe 0.83511353 0.37940979 0.74458313
  Ne 0.79101562 0.41053009 0.49378204
  Kr 0.83200073 0.39429474 0.49610901
  Xe 0.84566498 0.38887787 0.49688721
  Ne 0.79100037 0.76236725 0.34494019
  Kr 0.82389832 0.78798676 0.33045959
  Xe 0.83486938 0.79652405 0.32563019
  Ne 0.79119110 0.54543304 0.35784912
  Kr 0.83216858 0.54766083 0.34158325
  Xe 0.84582520 0.54840088 0.33615875
  Ne 0.79121399 0.64854431 0.46033478
  Kr 0.83216858 0.66485596 0.45808411
  Xe 0.84582520 0.67029572 0.45733643
  Ne 0.79101562 0.66052246 0.24377441
  Kr 0.82393646 0.67495728 0.21815491
  Xe 0.83491516 0.67977142 0.20961761
  He 0.37033844 0.78971863 0.28150940
  Xe 0.37826538 0.81225586 0.26432037
  Kr 0.38223267 0.82351685 0.25572968
  He 0.62033844 0.78971863 0.28150940
  Xe 0.62825012 0.81225586 0.26432037
  Kr 0.63220215 0.82352448 0.25572205
  Ne 0.61087799 0.26271057 0.77655792
  Kr 0.62346649 0.23460388 0.80818176
  Xe 0.62766266 0.22522736 0.81872559
  Ne 0.61080933 0.22949982 0.74376678
  Kr 0.62338257 0.19790649 0.77191162
  Xe 0.62757874 0.18737793 0.78129578
  Ne 0.36088562 0.26271057 0.77655792
  Kr 0.34721375 0.23482513 0.80792999
  Xe 0.34265137 0.22552490 0.81838226
  Ne 0.36079407 0.22949982 0.74376678
  Kr 0.34712219 0.19816589 0.77168274
  Xe 0.34255981 0.18772125 0.78099060
  He 0.29631805 0.65798187 0.73734283
  Xe 0.27919769 0.66590881 0.75993347
  Kr 0.27064514 0.66986847 0.77122498
  Ne 0.47469330 0.39732361 0.77631378
  Kr 0.47242737 0.37957001 0.81665802
  Xe 0.47167206 0.37364960 0.83010864
  Ne 0.25777435 0.41020203 0.77649689
  Kr 0.23186493 0.39701843 0.80971527
  Xe 0.22322845 0.39262390 0.82079315
  Ne 0.37291718 0.29616547 0.77631378
  Kr 0.35974121 0.27029419 0.80957031
  Xe 0.35535431 0.26167297 0.82065582
  Ne 0.36088562 0.51272583 0.77655792
  Kr 0.34326935 0.51050568 0.81697083
  Xe 0.33739471 0.50976562 0.83044434
  Ne 0.72472382 0.64733887 0.77631378
  Kr 0.75061798 0.66046143 0.80957031
  Xe 0.75924683 0.66483307 0.82065582
  Ne 0.50778961 0.66019440 0.77649689
  Kr 0.50997925 0.67785645 0.81689453
  Xe 0.51071167 0.68374634 0.83036041
  Ne 0.62290955 0.54618073 0.77630615
  Kr 0.64061737 0.54847717 0.81668091
  Xe 0.64651489 0.54924011 0.83013916
  Ne 0.61087799 0.76274109 0.77655792
  Kr 0.62409973 0.78862000 0.80978394
  Xe 0.62850952 0.79724884 0.82085419
  Ne 0.47469330 0.64733887 0.77631378
  Kr 0.47238922 0.66352081 0.81732178
  Xe 0.47161865 0.66891479 0.83098602
  Ne 0.37291718 0.54618073 0.77631378
  Kr 0.35668182 0.54850769 0.81729889
  Xe 0.35127258 0.54928589 0.83095551
  Ne 0.36088562 0.76274109 0.77655792
  Kr 0.34653473 0.78839874 0.80948639
  Xe 0.34175110 0.79695129 0.82046509
  Ne 0.72472382 0.39732361 0.77631378
  Kr 0.75034332 0.38284302 0.80921173
  Xe 0.75888062 0.37801361 0.82018280
  Ne 0.50778961 0.41020203 0.77649689
  Kr 0.51000977 0.39393616 0.81747437
  Xe 0.51074982 0.38851929 0.83113098
  Ne 0.62290955 0.29616547 0.77631378
  Kr 0.63735199 0.27055359 0.80923462
  Xe 0.64215851 0.26201630 0.82021332
  Ne 0.61087799 0.51272583 0.77655792
  Kr 0.62718201 0.51047516 0.81752014
  Xe 0.63262177 0.50972748 0.83116913
  Ne 0.75780487 0.41020203 0.77649689
  Kr 0.78591156 0.39764404 0.80813599
  Xe 0.79528046 0.39345551 0.81867981
  Ne 0.79101562 0.41053009 0.74380493
  Kr 0.82261658 0.39801025 0.77197266
  Xe 0.83314514 0.39383698 0.78136444
  Ne 0.75780487 0.66019440 0.77649689
  Kr 0.78567505 0.67390442 0.80786133
  Xe 0.79496002 0.67847443 0.81832123
  Ne 0.79101562 0.66052246 0.74380493
  Kr 0.82232666 0.67425537 0.77172089
  Xe 0.83276367 0.67883301 0.78102875
