data_subtitutions
_audit_creation_method    igor
_audit_author_name 'sponge bob'
_cell_length_a    23.2520008
_cell_length_b    23.2520008
_cell_length_c    25.2919998
_cell_angle_alpha    90.0000000
_cell_angle_beta   -90.0000000
_cell_angle_gamma    90.0000000
_cell_volume 13674.2597656
_symmetry_space_group_name_hall 'p 1'
_symmetry_space_group_name_h-m 'p 1'
_symmetry_int_tables_number 1
_symmetry_equiv_pos_as_xyz 'x,y,z'
loop_
_atom_site_label
_atom_site_fract_x
_atom_site_fract_y
_atom_site_fract_z
Zn   0.07530212 0.63761902 0.22789764
Zn   0.66759491 0.90718842 0.01119232
 C   0.54988861 0.87132263 0.00949097
 N   0.50270844 0.88392639 0.47038269
 N   0.60089111 0.88332367 0.47358704
 C   0.52421570 0.89970398 0.42151642
 C   0.58338928 0.89919281 0.42329407
 H   0.54808044 0.85820770 0.05029297
 H   0.61431122 0.90921021 0.39221954
 H   0.49578857 0.91020203 0.38858032
 C   0.28749847 0.44249725 0.21259308
 N   0.30479431 0.42422485 0.15641022
 N   0.23370361 0.40749359 0.21769714
 C   0.26560974 0.38521576 0.13609314
 C   0.22312164 0.37519073 0.17278290
 H   0.30801392 0.47148895 0.23991394
 H   0.18600464 0.34659576 0.17001343
 H   0.27051544 0.36629486 0.09690857
 C   0.63461304 0.90822601 0.12731171
 N   0.60291290 0.86001587 0.15641022
 N   0.65422058 0.87390137 0.07991028
 C   0.60610199 0.80879211 0.12861633
 C   0.63702393 0.81700134 0.08290863
 H   0.64089203 0.95269012 0.13739777
 H   0.64811707 0.78607941 0.05219269
 H   0.58609772 0.76948547 0.14328766
 C   0.09590912 0.50730896 0.24778748
 N   0.14678192 0.48400116 0.27929688
 N   0.10631561 0.57009888 0.25640869
 C   0.17848206 0.52829742 0.30139923
 C   0.15418243 0.58012390 0.28759766
 H   0.06270599 0.48512268 0.22612000
 H   0.16738129 0.62360382 0.29819489
 H   0.21619415 0.51999664 0.32591248
Zn   0.36241913 0.57530212 0.35292053
Zn   0.09281158 0.16759491 0.13620758
 C   0.12872314 0.04988861 0.13450623
 N   0.11611938 0.00270844 0.09540558
 N   0.11672211 0.10089111 0.09860992
 C   0.10029602 0.02421570 0.04649353
 C   0.10080719 0.08338928 0.04831696
 H   0.14179230 0.04808044 0.17531586
 H   0.09078979 0.11431122 0.01719666
 H   0.08979797 0.99578857 0.01360321
 C   0.55750275 0.78749847 0.33761597
 N   0.57582092 0.80479431 0.28139496
 N   0.59250641 0.73370361 0.34272003
 C   0.61478424 0.76560974 0.26110840
 C   0.62480927 0.72312164 0.29779816
 H   0.52851105 0.80801392 0.36489868
 H   0.65340424 0.68600464 0.29499817
 H   0.63370514 0.77051544 0.22188568
 C   0.09181976 0.13461304 0.25229645
 N   0.13999176 0.10291290 0.28139496
 N   0.12609863 0.15418243 0.20488739
 C   0.19120789 0.10610199 0.25360107
 C   0.18299866 0.13702393 0.20789337
 H   0.04730988 0.14089203 0.26241302
 H   0.21392059 0.14811707 0.17720795
 H   0.23051453 0.08609772 0.26830292
 C   0.49269104 0.59590912 0.37280273
 N   0.51599884 0.64678192 0.40431976
 N   0.42990112 0.60631561 0.38138580
 C   0.47170258 0.67852020 0.42642212
 C   0.41992188 0.65422058 0.41258240
 H   0.51492310 0.56270599 0.35109711
 H   0.37639618 0.66738129 0.42321777
 H   0.48000336 0.71619415 0.45089722
Zn   0.92469788 0.36241913 0.22789764
Zn   0.33240509 0.09281158 0.01119232
 C   0.45011139 0.12872314 0.00949097
 N   0.49729156 0.11611938 0.47038269
 N   0.39910889 0.11672211 0.47358704
 C   0.47578430 0.10029602 0.42151642
 C   0.41661072 0.10080719 0.42329407
 H   0.45191956 0.14179230 0.05029297
 H   0.38568878 0.09078979 0.39221954
 H   0.50421143 0.08979797 0.38858032
 C   0.71250153 0.55750275 0.21259308
 N   0.69520569 0.57582092 0.15641022
 N   0.76629639 0.59250641 0.21769714
 C   0.73439026 0.61478424 0.13609314
 C   0.77692413 0.62480927 0.17278290
 H   0.69198608 0.52851105 0.23991394
 H   0.81399536 0.65340424 0.17001343
 H   0.72948456 0.63370514 0.09690857
 C   0.36538696 0.09181976 0.12731171
 N   0.39708710 0.13999176 0.15641022
 N   0.34581757 0.12609863 0.07991028
 C   0.39389801 0.19120789 0.12861633
 C   0.36302185 0.18299866 0.08290863
 H   0.35910797 0.04730988 0.13739777
 H   0.35188293 0.21392059 0.05219269
 H   0.41390228 0.23051453 0.14328766
 C   0.90409088 0.49269104 0.24778748
 N   0.85321808 0.51599884 0.27929688
 N   0.89368439 0.42990112 0.25640869
 C   0.82151794 0.47170258 0.30139923
 C   0.84581757 0.41992188 0.28759766
 H   0.93729401 0.51492310 0.22612000
 H   0.83261871 0.37639618 0.29819489
 H   0.78380585 0.48000336 0.32591248
Zn   0.63761902 0.42469788 0.35292053
Zn   0.90718842 0.83240509 0.13620758
 C   0.87132263 0.95011139 0.13450623
 N   0.88392639 0.99729156 0.09540558
 N   0.88332367 0.89910889 0.09860992
 C   0.89970398 0.97578430 0.04649353
 C   0.89919281 0.91661072 0.04831696
 H   0.85820770 0.95191956 0.17531586
 H   0.90921021 0.88568878 0.01719666
 H   0.91020203 0.00421143 0.01360321
 C   0.44249725 0.21250153 0.33761597
 N   0.42422485 0.19520569 0.28139496
 N   0.40749359 0.26629639 0.34272003
 C   0.38521576 0.23439026 0.26110840
 C   0.37519073 0.27692413 0.29779816
 H   0.47148895 0.19198608 0.36489868
 H   0.34659576 0.31399536 0.29499817
 H   0.36629486 0.22948456 0.22188568
 C   0.90822601 0.86538696 0.25229645
 N   0.86001587 0.89708710 0.28139496
 N   0.87390137 0.84581757 0.20488739
 C   0.80879211 0.89389801 0.25360107
 C   0.81700134 0.86302185 0.20789337
 H   0.95269012 0.85910797 0.26241302
 H   0.78607941 0.85188293 0.17720795
 H   0.76948547 0.91390228 0.26830292
 C   0.50730896 0.40409088 0.37280273
 N   0.48400116 0.35321808 0.40431976
 N   0.57009888 0.39368439 0.38138580
 C   0.52829742 0.32151794 0.42642212
 C   0.58012390 0.34581757 0.41258240
 H   0.48512268 0.43729401 0.35109711
 H   0.62360382 0.33261871 0.42321777
 H   0.51999664 0.28380585 0.45089722
Zn   0.92469788 0.63761902 0.47789764
Zn   0.33240509 0.90718842 0.26119232
 C   0.45011139 0.87132263 0.25949097
 N   0.49729156 0.88392639 0.22038269
 N   0.39910889 0.88332367 0.22358704
 C   0.47578430 0.89970398 0.17151642
 C   0.41661072 0.89919281 0.17329407
 H   0.45191956 0.85820770 0.30029297
 H   0.38568878 0.90921021 0.14221954
 H   0.50421143 0.91020203 0.13858032
 C   0.71250153 0.44249725 0.46259308
 N   0.69520569 0.42422485 0.40641022
 N   0.76629639 0.40749359 0.46769714
 C   0.73439026 0.38521576 0.38609314
 C   0.77692413 0.37519073 0.42278290
 H   0.69198608 0.47148895 0.48991394
 H   0.81399536 0.34659576 0.42001343
 H   0.72948456 0.36629486 0.34690857
 C   0.36538696 0.90822601 0.37731171
 N   0.39708710 0.86001587 0.40641022
 N   0.34581757 0.87390137 0.32991028
 C   0.39389801 0.80879211 0.37861633
 C   0.36302185 0.81700134 0.33290863
 H   0.35910797 0.95269012 0.38739777
 H   0.35188293 0.78607941 0.30219269
 H   0.41390228 0.76948547 0.39328766
 C   0.90409088 0.50730896 0.49778748
 N   0.85321808 0.48400116 0.02929688
 N   0.89368439 0.57009888 0.00640869
 C   0.82151794 0.52829742 0.05139923
 C   0.84581757 0.58012390 0.03759766
 H   0.93729401 0.48512268 0.47612000
 H   0.83261871 0.62360382 0.04819489
 H   0.78380585 0.51999664 0.07591248
Zn   0.07530212 0.36241913 0.47789764
Zn   0.66759491 0.09281158 0.26119232
 C   0.54988861 0.12872314 0.25949097
 N   0.50270844 0.11611938 0.22038269
 N   0.60089111 0.11672211 0.22358704
 C   0.52421570 0.10029602 0.17151642
 C   0.58338928 0.10080719 0.17329407
 H   0.54808044 0.14179230 0.30029297
 H   0.61431122 0.09078979 0.14221954
 H   0.49578857 0.08979797 0.13858032
 C   0.28749847 0.55750275 0.46259308
 N   0.30479431 0.57582092 0.40641022
 N   0.23370361 0.59250641 0.46769714
 C   0.26560974 0.61478424 0.38609314
 C   0.22312164 0.62480927 0.42278290
 H   0.30801392 0.52851105 0.48991394
 H   0.18600464 0.65340424 0.42001343
 H   0.27051544 0.63370514 0.34690857
 C   0.63461304 0.09181976 0.37731171
 N   0.60291290 0.13999176 0.40641022
 N   0.65422058 0.12609863 0.32991028
 C   0.60610199 0.19120789 0.37861633
 C   0.63702393 0.18299866 0.33290863
 H   0.64089203 0.04730988 0.38739777
 H   0.64811707 0.21392059 0.30219269
 H   0.58609772 0.23051453 0.39328766
 C   0.09590912 0.49269104 0.49778748
 N   0.14678192 0.51599884 0.02929688
 N   0.10631561 0.42990112 0.00640869
 C   0.17848206 0.47170258 0.05139923
 C   0.15418243 0.41992188 0.03759766
 H   0.06270599 0.51492310 0.47612000
 H   0.16738129 0.37639618 0.04819489
 H   0.21619415 0.48000336 0.07591248
Zn   0.86241913 0.92469788 0.35292053
Zn   0.59281158 0.33240509 0.13620758
 C   0.62872314 0.45011139 0.13450623
 N   0.61611938 0.49729156 0.09540558
 N   0.61672211 0.39910889 0.09860992
 C   0.60029602 0.47578430 0.04649353
 C   0.60080719 0.41661072 0.04831696
 H   0.64179230 0.45191956 0.17531586
 H   0.59078979 0.38568878 0.01719666
 H   0.58979797 0.50421143 0.01360321
 C   0.05750275 0.71250153 0.33761597
 N   0.07582092 0.69520569 0.28139496
 N   0.09250641 0.76629639 0.34272003
 C   0.11478424 0.73439026 0.26110840
 C   0.12480927 0.77692413 0.29779816
 H   0.02851105 0.69198608 0.36489868
 H   0.15340424 0.81399536 0.29499817
 H   0.13370514 0.72948456 0.22188568
 C   0.59181976 0.36538696 0.25229645
 N   0.63998413 0.39708710 0.28139496
 N   0.62609863 0.34581757 0.20488739
 C   0.69120789 0.39389801 0.25360107
 C   0.68299866 0.36302185 0.20789337
 H   0.54730988 0.35910797 0.26241302
 H   0.71392059 0.35188293 0.17720795
 H   0.73051453 0.41390228 0.26830292
 C   0.99269104 0.90409088 0.37280273
 N   0.01599884 0.85321808 0.40431976
 N   0.92990112 0.89368439 0.38138580
 C   0.97170258 0.82151794 0.42642212
 C   0.91992188 0.84581757 0.41258240
 H   0.01487732 0.93729401 0.35109711
 H   0.87639618 0.83261871 0.42321777
 H   0.98000336 0.78380585 0.45089722
Zn   0.13758087 0.07530212 0.35292053
Zn   0.40718842 0.66759491 0.13620758
 C   0.37132263 0.54988861 0.13450623
 N   0.38388062 0.50270844 0.09540558
 N   0.38332367 0.60089111 0.09860992
 C   0.39970398 0.52421570 0.04649353
 C   0.39919281 0.58338928 0.04831696
 H   0.35820770 0.54808044 0.17531586
 H   0.40921021 0.61431122 0.01719666
 H   0.41020203 0.49578857 0.01360321
 C   0.94249725 0.28749847 0.33761597
 N   0.92422485 0.30479431 0.28139496
 N   0.90749359 0.23370361 0.34272003
 C   0.88521576 0.26560974 0.26110840
 C   0.87519073 0.22312164 0.29779816
 H   0.97148895 0.30801392 0.36489868
 H   0.84659576 0.18600464 0.29499817
 H   0.86628723 0.27051544 0.22188568
 C   0.40822601 0.63461304 0.25229645
 N   0.36001587 0.60291290 0.28139496
 N   0.37390137 0.65422058 0.20488739
 C   0.30879211 0.60610199 0.25360107
 C   0.31700134 0.63702393 0.20789337
 H   0.45281982 0.64089203 0.26241302
 H   0.28607941 0.64811707 0.17720795
 H   0.26948547 0.58609772 0.26830292
 C   0.00730896 0.09590912 0.37280273
 N   0.98400116 0.14678192 0.40431976
 N   0.07009888 0.10631561 0.38138580
 C   0.02829742 0.17848206 0.42642212
 C   0.08007812 0.15418243 0.41258240
 H   0.98512268 0.06270599 0.35109711
 H   0.12360382 0.16738129 0.42321777
 H   0.01999664 0.21619415 0.45089722
Zn   0.57530212 0.13758087 0.47789764
Zn   0.16759491 0.40718842 0.26119232
 C   0.04988861 0.37132263 0.25949097
 N   0.00270844 0.38388062 0.22038269
 N   0.10089111 0.38332367 0.22358704
 C   0.02421570 0.39970398 0.17151642
 C   0.08338928 0.39919281 0.17329407
 H   0.04808044 0.35820770 0.30029297
 H   0.11431122 0.40921021 0.14221954
 H   0.99578857 0.41020203 0.13858032
 C   0.78749847 0.94249725 0.46259308
 N   0.80479431 0.92422485 0.40641022
 N   0.73370361 0.90749359 0.46769714
 C   0.76560974 0.88521576 0.38609314
 C   0.72312164 0.87519073 0.42278290
 H   0.80801392 0.97148895 0.48991394
 H   0.68600464 0.84659576 0.42001343
 H   0.77051544 0.86628723 0.34690857
 C   0.13461304 0.40822601 0.37731171
 N   0.10291290 0.36001587 0.40641022
 N   0.15418243 0.37390137 0.32991028
 C   0.10610199 0.30879211 0.37861633
 C   0.13702393 0.31700134 0.33290863
 H   0.14089203 0.45269012 0.38739777
 H   0.14811707 0.28607941 0.30219269
 H   0.08609772 0.26948547 0.39328766
 C   0.59590912 0.00730896 0.49778748
 N   0.64678192 0.98400116 0.02929688
 N   0.60631561 0.07009888 0.00640869
 C   0.67852020 0.02829742 0.05139923
 C   0.65422058 0.08007812 0.03759766
 H   0.56270599 0.98512268 0.47612000
 H   0.66738129 0.12360382 0.04819489
 H   0.71619415 0.01999664 0.07591248
Zn   0.86241913 0.07530212 0.10292053
Zn   0.59281158 0.66759491 0.38620758
 C   0.62872314 0.54988861 0.38450623
 N   0.61611938 0.50270844 0.34540558
 N   0.61672211 0.60089111 0.34860992
 C   0.60029602 0.52421570 0.29649353
 C   0.60080719 0.58338928 0.29831696
 H   0.64179230 0.54808044 0.42531586
 H   0.59078979 0.61431122 0.26719666
 H   0.58979797 0.49578857 0.26360321
 C   0.05750275 0.28749847 0.08761597
 N   0.07582092 0.30479431 0.03139496
 N   0.09250641 0.23370361 0.09272003
 C   0.11478424 0.26560974 0.01110840
 C   0.12480927 0.22312164 0.04779816
 H   0.02851105 0.30801392 0.11489868
 H   0.15340424 0.18600464 0.04499817
 H   0.13371277 0.27051544 0.47188568
 C   0.59181976 0.63461304 0.00229645
 N   0.63998413 0.60291290 0.03139496
 N   0.62609863 0.65422058 0.45488739
 C   0.69120789 0.60610199 0.00360107
 C   0.68299866 0.63702393 0.45789337
 H   0.54730988 0.64089203 0.01241302
 H   0.71392059 0.64811707 0.42720795
 H   0.73051453 0.58609772 0.01830292
 C   0.99269104 0.09590912 0.12280273
 N   0.01599884 0.14678192 0.15431976
 N   0.92990112 0.10631561 0.13138580
 C   0.97170258 0.17848206 0.17642212
 C   0.91992188 0.15418243 0.16258240
 H   0.01487732 0.06270599 0.10109711
 H   0.87639618 0.16738129 0.17321777
 H   0.98000336 0.21619415 0.20089722
Zn   0.42469788 0.86241913 0.47789764
Zn   0.83240509 0.59281158 0.26119232
 C   0.95011139 0.62872314 0.25949097
 N   0.99729156 0.61611938 0.22038269
 N   0.89910889 0.61672211 0.22358704
 C   0.97578430 0.60029602 0.17151642
 C   0.91661072 0.60080719 0.17329407
 H   0.95191956 0.64179230 0.30029297
 H   0.88568878 0.59078979 0.14221954
 H   0.00421143 0.58979797 0.13858032
 C   0.21250153 0.05750275 0.46259308
 N   0.19520569 0.07582092 0.40641022
 N   0.26629639 0.09250641 0.46769714
 C   0.23439026 0.11478424 0.38609314
 C   0.27692413 0.12480927 0.42278290
 H   0.19198608 0.02851105 0.48991394
 H   0.31399536 0.15340424 0.42001343
 H   0.22948456 0.13370514 0.34690857
 C   0.86538696 0.59181976 0.37731171
 N   0.89708710 0.63998413 0.40641022
 N   0.84581757 0.62609863 0.32991028
 C   0.89389801 0.69120789 0.37861633
 C   0.86302185 0.68299866 0.33290863
 H   0.85910797 0.54730988 0.38739777
 H   0.85188293 0.71392059 0.30219269
 H   0.91390228 0.73051453 0.39328766
 C   0.40409088 0.99269104 0.49778748
 N   0.35321808 0.01599884 0.02929688
 N   0.39368439 0.92990112 0.00640869
 C   0.32151794 0.97170258 0.05139923
 C   0.34581757 0.91992188 0.03759766
 H   0.43729401 0.01487732 0.47612000
 H   0.33261871 0.87639618 0.04819489
 H   0.28380585 0.98000336 0.07591248
Zn   0.13758087 0.92469788 0.10292053
Zn   0.40718842 0.33240509 0.38620758
 C   0.37132263 0.45011139 0.38450623
 N   0.38388062 0.49729156 0.34540558
 N   0.38332367 0.39910889 0.34860992
 C   0.39970398 0.47578430 0.29649353
 C   0.39919281 0.41661072 0.29831696
 H   0.35820770 0.45191956 0.42531586
 H   0.40921021 0.38568878 0.26719666
 H   0.41020203 0.50421143 0.26360321
 C   0.94249725 0.71250153 0.08761597
 N   0.92422485 0.69520569 0.03139496
 N   0.90749359 0.76629639 0.09272003
 C   0.88521576 0.73439026 0.01110840
 C   0.87519073 0.77692413 0.04779816
 H   0.97148895 0.69198608 0.11489868
 H   0.84659576 0.81399536 0.04499817
 H   0.86628723 0.72948456 0.47188568
 C   0.40822601 0.36538696 0.00229645
 N   0.36001587 0.39708710 0.03139496
 N   0.37390137 0.34581757 0.45488739
 C   0.30879211 0.39389801 0.00360107
 C   0.31700134 0.36302185 0.45789337
 H   0.45281982 0.35910797 0.01241302
 H   0.28607941 0.35188293 0.42720795
 H   0.26948547 0.41390228 0.01830292
 C   0.00730896 0.90409088 0.12280273
 N   0.98400116 0.85321808 0.15431976
 N   0.07009888 0.89368439 0.13138580
 C   0.02829742 0.82151794 0.17642212
 C   0.08007812 0.84581757 0.16258240
 H   0.98512268 0.93729401 0.10109711
 H   0.12360382 0.83261871 0.17321777
 H   0.01999664 0.78380585 0.20089722
Zn   0.42469788 0.13758087 0.22789764
Zn   0.83240509 0.40718842 0.01119232
 C   0.95011139 0.37132263 0.00949097
 N   0.99729156 0.38388062 0.47038269
 N   0.89910889 0.38332367 0.47358704
 C   0.97578430 0.39970398 0.42151642
 C   0.91661072 0.39919281 0.42329407
 H   0.95191956 0.35820770 0.05029297
 H   0.88568878 0.40921021 0.39221954
 H   0.00421143 0.41020203 0.38858032
 C   0.21250153 0.94249725 0.21259308
 N   0.19520569 0.92422485 0.15641022
 N   0.26629639 0.90749359 0.21769714
 C   0.23439026 0.88521576 0.13609314
 C   0.27692413 0.87519073 0.17278290
 H   0.19198608 0.97148895 0.23991394
 H   0.31399536 0.84659576 0.17001343
 H   0.22948456 0.86628723 0.09690857
 C   0.86538696 0.40822601 0.12731171
 N   0.89708710 0.36001587 0.15641022
 N   0.84581757 0.37390137 0.07991028
 C   0.89389801 0.30879211 0.12861633
 C   0.86302185 0.31700134 0.08290863
 H   0.85910797 0.45269012 0.13739777
 H   0.85188293 0.28607941 0.05219269
 H   0.91390228 0.26948547 0.14328766
 C   0.40409088 0.00730896 0.24778748
 N   0.35321808 0.98400116 0.27929688
 N   0.39368439 0.07009888 0.25640869
 C   0.32151794 0.02829742 0.30139923
 C   0.34581757 0.08007812 0.28759766
 H   0.43729401 0.98512268 0.22612000
 H   0.33261871 0.12360382 0.29819489
 H   0.28380585 0.01999664 0.32591248
Zn   0.57530212 0.86241913 0.22789764
Zn   0.16759491 0.59281158 0.01119232
 C   0.04988861 0.62872314 0.00949097
 N   0.00270844 0.61611938 0.47038269
 N   0.10089111 0.61672211 0.47358704
 C   0.02421570 0.60029602 0.42151642
 C   0.08338928 0.60080719 0.42329407
 H   0.04808044 0.64179230 0.05029297
 H   0.11431122 0.59078979 0.39221954
 H   0.99578857 0.58979797 0.38858032
 C   0.78749847 0.05750275 0.21259308
 N   0.80479431 0.07582092 0.15641022
 N   0.73370361 0.09250641 0.21769714
 C   0.76560974 0.11478424 0.13609314
 C   0.72312164 0.12480927 0.17278290
 H   0.80801392 0.02851105 0.23991394
 H   0.68600464 0.15340424 0.17001343
 H   0.77051544 0.13370514 0.09690857
 C   0.13461304 0.59181976 0.12731171
 N   0.10291290 0.63998413 0.15641022
 N   0.15418243 0.62609863 0.07991028
 C   0.10610199 0.69120789 0.12861633
 C   0.13702393 0.68299866 0.08290863
 H   0.14089203 0.54730988 0.13739777
 H   0.14811707 0.71392059 0.05219269
 H   0.08609772 0.73051453 0.14328766
 C   0.59590912 0.99269104 0.24778748
 N   0.64678192 0.01599884 0.27929688
 N   0.60631561 0.92990112 0.25640869
 C   0.67852020 0.97170258 0.30139923
 C   0.65422058 0.91992188 0.28759766
 H   0.56270599 0.01487732 0.22612000
 H   0.66738129 0.87639618 0.29819489
 H   0.71619415 0.98000336 0.32591248
Zn   0.36241913 0.42469788 0.10292053
Zn   0.09281158 0.83240509 0.38620758
 C   0.12872314 0.95011139 0.38450623
 N   0.11611938 0.99729156 0.34540558
 N   0.11672211 0.89910889 0.34860992
 C   0.10029602 0.97578430 0.29649353
 C   0.10080719 0.91661072 0.29831696
 H   0.14179230 0.95191956 0.42531586
 H   0.09078979 0.88568878 0.26719666
 H   0.08979797 0.00421143 0.26360321
 C   0.55750275 0.21250153 0.08761597
 N   0.57582092 0.19520569 0.03139496
 N   0.59250641 0.26629639 0.09272003
 C   0.61478424 0.23439026 0.01110840
 C   0.62480927 0.27692413 0.04779816
 H   0.52851105 0.19198608 0.11489868
 H   0.65340424 0.31399536 0.04499817
 H   0.63370514 0.22948456 0.47188568
 C   0.09181976 0.86538696 0.00229645
 N   0.13999176 0.89708710 0.03139496
 N   0.12609863 0.84581757 0.45488739
 C   0.19120789 0.89389801 0.00360107
 C   0.18299866 0.86302185 0.45789337
 H   0.04730988 0.85910797 0.01241302
 H   0.21392059 0.85188293 0.42720795
 H   0.23051453 0.91390228 0.01830292
 C   0.49269104 0.40409088 0.12280273
 N   0.51599884 0.35321808 0.15431976
 N   0.42990112 0.39368439 0.13138580
 C   0.47170258 0.32151794 0.17642212
 C   0.41992188 0.34581757 0.16258240
 H   0.51492310 0.43729401 0.10109711
 H   0.37639618 0.33261871 0.17321777
 H   0.48000336 0.28380585 0.20089722
Zn   0.63761902 0.57530212 0.10292053
Zn   0.90718842 0.16759491 0.38620758
 C   0.87132263 0.04988861 0.38450623
 N   0.88392639 0.00270844 0.34540558
 N   0.88332367 0.10089111 0.34860992
 C   0.89970398 0.02421570 0.29649353
 C   0.89919281 0.08338928 0.29831696
 H   0.85820770 0.04808044 0.42531586
 H   0.90921021 0.11431122 0.26719666
 H   0.91020203 0.99578857 0.26360321
 C   0.44249725 0.78749847 0.08761597
 N   0.42422485 0.80479431 0.03139496
 N   0.40749359 0.73370361 0.09272003
 C   0.38521576 0.76560974 0.01110840
 C   0.37519073 0.72312164 0.04779816
 H   0.47148895 0.80801392 0.11489868
 H   0.34659576 0.68600464 0.04499817
 H   0.36629486 0.77051544 0.47188568
 C   0.90822601 0.13461304 0.00229645
 N   0.86001587 0.10291290 0.03139496
 N   0.87390137 0.15418243 0.45488739
 C   0.80879211 0.10610199 0.00360107
 C   0.81700134 0.13702393 0.45789337
 H   0.95269012 0.14089203 0.01241302
 H   0.78607941 0.14811707 0.42720795
 H   0.76948547 0.08609772 0.01830292
 C   0.50730896 0.59590912 0.12280273
 N   0.48400116 0.64678192 0.15431976
 N   0.57009888 0.60631561 0.13138580
 C   0.52829742 0.67852020 0.17642212
 C   0.58012390 0.65422058 0.16258240
 H   0.48512268 0.56270599 0.10109711
 H   0.62360382 0.66738129 0.17321777
 H   0.51999664 0.71619415 0.20089722
Zn   0.07530212 0.63761902 0.72789764
Zn   0.66759491 0.90718842 0.51119232
 C   0.54988861 0.87132263 0.50949097
 N   0.50270844 0.88392639 0.97038269
 N   0.60089111 0.88332367 0.97358704
 C   0.52421570 0.89970398 0.92151642
 C   0.58338928 0.89919281 0.92329407
 H   0.54808044 0.85820770 0.55029297
 H   0.61431122 0.90921021 0.89221954
 H   0.49578857 0.91020203 0.88858032
 C   0.28749847 0.44249725 0.71260071
 N   0.30479431 0.42422485 0.65641022
 N   0.23370361 0.40749359 0.71769714
 C   0.26560974 0.38521576 0.63609314
 C   0.22312164 0.37519073 0.67278290
 H   0.30801392 0.47148895 0.73991394
 H   0.18600464 0.34659576 0.67001343
 H   0.27051544 0.36629486 0.59690857
 C   0.63461304 0.90822601 0.62731171
 N   0.60291290 0.86001587 0.65641022
 N   0.65422058 0.87390137 0.57991028
 C   0.60610199 0.80879211 0.62861633
 C   0.63702393 0.81700134 0.58290863
 H   0.64089203 0.95269012 0.63739777
 H   0.64811707 0.78607941 0.55219269
 H   0.58609772 0.76948547 0.64328766
 C   0.09590912 0.50730896 0.74778748
 N   0.14678192 0.48400116 0.77929688
 N   0.10631561 0.57009888 0.75640869
 C   0.17848206 0.52829742 0.80139923
 C   0.15418243 0.58012390 0.78759766
 H   0.06270599 0.48512268 0.72612000
 H   0.16738129 0.62360382 0.79819489
 H   0.21619415 0.51999664 0.82591248
Zn   0.36241913 0.57530212 0.85292053
Zn   0.09281158 0.16759491 0.63620758
 C   0.12872314 0.04988861 0.63450623
 N   0.11611938 0.00270844 0.59540558
 N   0.11672211 0.10089111 0.59860992
 C   0.10029602 0.02421570 0.54649353
 C   0.10080719 0.08338928 0.54831696
 H   0.14179230 0.04808044 0.67531586
 H   0.09078979 0.11431122 0.51719666
 H   0.08979797 0.99578857 0.51360321
 C   0.55750275 0.78749847 0.83761597
 N   0.57582092 0.80479431 0.78139496
 N   0.59250641 0.73370361 0.84272003
 C   0.61478424 0.76560974 0.76110840
 C   0.62480927 0.72312164 0.79779816
 H   0.52851105 0.80801392 0.86489868
 H   0.65340424 0.68600464 0.79499817
 H   0.63371277 0.77051544 0.72188568
 C   0.09181976 0.13461304 0.75229645
 N   0.13999176 0.10291290 0.78139496
 N   0.12609863 0.15418243 0.70488739
 C   0.19120789 0.10610199 0.75360107
 C   0.18299866 0.13702393 0.70789337
 H   0.04730988 0.14089203 0.76241302
 H   0.21392059 0.14811707 0.67720795
 H   0.23051453 0.08609772 0.76830292
 C   0.49269104 0.59590912 0.87280273
 N   0.51599884 0.64678192 0.90431976
 N   0.42990112 0.60631561 0.88138580
 C   0.47170258 0.67852020 0.92642212
 C   0.41992188 0.65422058 0.91258240
 H   0.51492310 0.56270599 0.85109711
 H   0.37639618 0.66738129 0.92321777
 H   0.48000336 0.71619415 0.95089722
Zn   0.92469788 0.36241913 0.72789764
Zn   0.33240509 0.09281158 0.51119232
 C   0.45011139 0.12872314 0.50949097
 N   0.49729156 0.11611938 0.97038269
 N   0.39910889 0.11672211 0.97358704
 C   0.47578430 0.10029602 0.92151642
 C   0.41661072 0.10080719 0.92329407
 H   0.45191956 0.14179230 0.55029297
 H   0.38568878 0.09078979 0.89221954
 H   0.50421143 0.08979797 0.88858032
 C   0.71250153 0.55750275 0.71260071
 N   0.69520569 0.57582092 0.65641022
 N   0.76629639 0.59250641 0.71769714
 C   0.73439026 0.61478424 0.63609314
 C   0.77692413 0.62480927 0.67278290
 H   0.69198608 0.52851105 0.73991394
 H   0.81399536 0.65340424 0.67001343
 H   0.72948456 0.63370514 0.59690857
 C   0.36538696 0.09181976 0.62731171
 N   0.39708710 0.13999176 0.65641022
 N   0.34581757 0.12609863 0.57991028
 C   0.39389801 0.19120789 0.62861633
 C   0.36302185 0.18299866 0.58290863
 H   0.35910797 0.04730988 0.63739777
 H   0.35188293 0.21392059 0.55219269
 H   0.41390228 0.23051453 0.64328766
 C   0.90409088 0.49269104 0.74778748
 N   0.85321808 0.51599884 0.77929688
 N   0.89368439 0.42990112 0.75640869
 C   0.82151794 0.47170258 0.80139923
 C   0.84581757 0.41992188 0.78759766
 H   0.93729401 0.51492310 0.72612000
 H   0.83261871 0.37639618 0.79819489
 H   0.78380585 0.48000336 0.82591248
Zn   0.63761902 0.42469788 0.85292053
Zn   0.90718842 0.83240509 0.63620758
 C   0.87132263 0.95011139 0.63450623
 N   0.88392639 0.99729156 0.59540558
 N   0.88332367 0.89910889 0.59860992
 C   0.89970398 0.97578430 0.54649353
 C   0.89919281 0.91661072 0.54831696
 H   0.85820770 0.95191956 0.67531586
 H   0.90921021 0.88568878 0.51719666
 H   0.91020203 0.00421143 0.51360321
 C   0.44249725 0.21250153 0.83761597
 N   0.42422485 0.19520569 0.78139496
 N   0.40749359 0.26629639 0.84272003
 C   0.38521576 0.23439026 0.76110840
 C   0.37519073 0.27692413 0.79779816
 H   0.47148895 0.19198608 0.86489868
 H   0.34659576 0.31399536 0.79499817
 H   0.36629486 0.22948456 0.72188568
 C   0.90822601 0.86538696 0.75229645
 N   0.86001587 0.89708710 0.78139496
 N   0.87390137 0.84581757 0.70488739
 C   0.80879211 0.89389801 0.75360107
 C   0.81700134 0.86302185 0.70789337
 H   0.95269012 0.85910797 0.76241302
 H   0.78607941 0.85188293 0.67720795
 H   0.76948547 0.91390228 0.76830292
 C   0.50730896 0.40409088 0.87280273
 N   0.48400116 0.35321808 0.90431976
 N   0.57009888 0.39368439 0.88138580
 C   0.52829742 0.32151794 0.92642212
 C   0.58012390 0.34581757 0.91258240
 H   0.48512268 0.43729401 0.85109711
 H   0.62360382 0.33261871 0.92321777
 H   0.51999664 0.28380585 0.95089722
Zn   0.92469788 0.63761902 0.97789764
Zn   0.33240509 0.90718842 0.76119232
 C   0.45011139 0.87132263 0.75949097
 N   0.49729156 0.88392639 0.72038269
 N   0.39910889 0.88332367 0.72358704
 C   0.47578430 0.89970398 0.67151642
 C   0.41661072 0.89919281 0.67329407
 H   0.45191956 0.85820770 0.80029297
 H   0.38568878 0.90921021 0.64221954
 H   0.50421143 0.91020203 0.63858032
 C   0.71250153 0.44249725 0.96260071
 N   0.69520569 0.42422485 0.90641022
 N   0.76629639 0.40749359 0.96769714
 C   0.73439026 0.38521576 0.88609314
 C   0.77692413 0.37519073 0.92278290
 H   0.69198608 0.47148895 0.98991394
 H   0.81399536 0.34659576 0.92001343
 H   0.72948456 0.36629486 0.84690857
 C   0.36538696 0.90822601 0.87731171
 N   0.39708710 0.86001587 0.90641022
 N   0.34581757 0.87390137 0.82991028
 C   0.39389801 0.80879211 0.87861633
 C   0.36302185 0.81700134 0.83290863
 H   0.35910797 0.95269012 0.88739777
 H   0.35188293 0.78607941 0.80219269
 H   0.41390228 0.76948547 0.89328766
 C   0.90409088 0.50730896 0.99778748
 N   0.85321808 0.48400116 0.52929688
 N   0.89368439 0.57009888 0.50640869
 C   0.82151794 0.52829742 0.55139923
 C   0.84581757 0.58012390 0.53759766
 H   0.93729401 0.48512268 0.97612000
 H   0.83261871 0.62360382 0.54819489
 H   0.78380585 0.51999664 0.57591248
Zn   0.07530212 0.36241913 0.97789764
Zn   0.66759491 0.09281158 0.76119232
 C   0.54988861 0.12872314 0.75949097
 N   0.50270844 0.11611938 0.72038269
 N   0.60089111 0.11672211 0.72358704
 C   0.52421570 0.10029602 0.67151642
 C   0.58338928 0.10080719 0.67329407
 H   0.54808044 0.14179230 0.80029297
 H   0.61431122 0.09078979 0.64221954
 H   0.49578857 0.08979797 0.63858032
 C   0.28749847 0.55750275 0.96260071
 N   0.30479431 0.57582092 0.90641022
 N   0.23370361 0.59250641 0.96769714
 C   0.26560974 0.61478424 0.88609314
 C   0.22312164 0.62480927 0.92278290
 H   0.30801392 0.52851105 0.98991394
 H   0.18600464 0.65340424 0.92001343
 H   0.27051544 0.63370514 0.84690857
 C   0.63461304 0.09181976 0.87731171
 N   0.60291290 0.13999176 0.90641022
 N   0.65422058 0.12609863 0.82991028
 C   0.60610199 0.19120789 0.87861633
 C   0.63702393 0.18299866 0.83290863
 H   0.64089203 0.04730988 0.88739777
 H   0.64811707 0.21392059 0.80219269
 H   0.58609772 0.23051453 0.89328766
 C   0.09590912 0.49269104 0.99778748
 N   0.14678192 0.51599884 0.52929688
 N   0.10631561 0.42990112 0.50640869
 C   0.17848206 0.47170258 0.55139923
 C   0.15418243 0.41992188 0.53759766
 H   0.06270599 0.51492310 0.97612000
 H   0.16738129 0.37639618 0.54819489
 H   0.21619415 0.48000336 0.57591248
Zn   0.86241913 0.92469788 0.85292053
Zn   0.59281158 0.33240509 0.63620758
 C   0.62872314 0.45011139 0.63450623
 N   0.61611938 0.49729156 0.59540558
 N   0.61672211 0.39910889 0.59860992
 C   0.60029602 0.47578430 0.54649353
 C   0.60080719 0.41661072 0.54831696
 H   0.64179230 0.45191956 0.67531586
 H   0.59078979 0.38568878 0.51719666
 H   0.58979797 0.50421143 0.51360321
 C   0.05750275 0.71250153 0.83761597
 N   0.07582092 0.69520569 0.78139496
 N   0.09250641 0.76629639 0.84272003
 C   0.11478424 0.73439026 0.76110840
 C   0.12480927 0.77692413 0.79779816
 H   0.02851105 0.69198608 0.86489868
 H   0.15340424 0.81399536 0.79499817
 H   0.13371277 0.72948456 0.72188568
 C   0.59181976 0.36538696 0.75229645
 N   0.63999176 0.39708710 0.78139496
 N   0.62609863 0.34581757 0.70488739
 C   0.69120789 0.39389801 0.75360107
 C   0.68299866 0.36302185 0.70789337
 H   0.54730988 0.35910797 0.76241302
 H   0.71392059 0.35188293 0.67720795
 H   0.73051453 0.41390228 0.76830292
 C   0.99269104 0.90409088 0.87280273
 N   0.01599884 0.85321808 0.90431976
 N   0.92990112 0.89368439 0.88138580
 C   0.97170258 0.82151794 0.92642212
 C   0.91992188 0.84581757 0.91258240
 H   0.01487732 0.93729401 0.85109711
 H   0.87639618 0.83261871 0.92321777
 H   0.98000336 0.78380585 0.95089722
Zn   0.13758087 0.07530212 0.85292053
Zn   0.40718842 0.66759491 0.63620758
 C   0.37132263 0.54988861 0.63450623
 N   0.38388062 0.50270844 0.59540558
 N   0.38332367 0.60089111 0.59860992
 C   0.39970398 0.52421570 0.54649353
 C   0.39919281 0.58338928 0.54831696
 H   0.35820770 0.54808044 0.67531586
 H   0.40921021 0.61431122 0.51719666
 H   0.41020203 0.49578857 0.51360321
 C   0.94249725 0.28749847 0.83761597
 N   0.92422485 0.30479431 0.78139496
 N   0.90749359 0.23370361 0.84272003
 C   0.88521576 0.26560974 0.76110840
 C   0.87519073 0.22312164 0.79779816
 H   0.97148895 0.30801392 0.86489868
 H   0.84659576 0.18600464 0.79499817
 H   0.86629486 0.27051544 0.72188568
 C   0.40822601 0.63461304 0.75229645
 N   0.36001587 0.60291290 0.78139496
 N   0.37390137 0.65422058 0.70488739
 C   0.30879211 0.60610199 0.75360107
 C   0.31700134 0.63702393 0.70789337
 H   0.45281982 0.64089203 0.76241302
 H   0.28607941 0.64811707 0.67720795
 H   0.26948547 0.58609772 0.76830292
 C   0.00730896 0.09590912 0.87280273
 N   0.98400116 0.14678192 0.90431976
 N   0.07009888 0.10631561 0.88138580
 C   0.02829742 0.17848206 0.92642212
 C   0.08007812 0.15418243 0.91258240
 H   0.98512268 0.06270599 0.85109711
 H   0.12360382 0.16738129 0.92321777
 H   0.01999664 0.21619415 0.95089722
Zn   0.57530212 0.13758087 0.97789764
Zn   0.16759491 0.40718842 0.76119232
 C   0.04988861 0.37132263 0.75949097
 N   0.00270844 0.38388062 0.72038269
 N   0.10089111 0.38332367 0.72358704
 C   0.02421570 0.39970398 0.67151642
 C   0.08338928 0.39919281 0.67329407
 H   0.04808044 0.35820770 0.80029297
 H   0.11431122 0.40921021 0.64221954
 H   0.99578857 0.41020203 0.63858032
 C   0.78749847 0.94249725 0.96260071
 N   0.80479431 0.92422485 0.90641022
 N   0.73370361 0.90749359 0.96769714
 C   0.76560974 0.88521576 0.88609314
 C   0.72312164 0.87519073 0.92278290
 H   0.80801392 0.97148895 0.98991394
 H   0.68600464 0.84659576 0.92001343
 H   0.77051544 0.86628723 0.84690857
 C   0.13461304 0.40822601 0.87731171
 N   0.10291290 0.36001587 0.90641022
 N   0.15418243 0.37390137 0.82991028
 C   0.10610199 0.30879211 0.87861633
 C   0.13702393 0.31700134 0.83290863
 H   0.14089203 0.45269012 0.88739777
 H   0.14811707 0.28607941 0.80219269
 H   0.08609772 0.26948547 0.89328766
 C   0.59590912 0.00730896 0.99778748
 N   0.64678192 0.98400116 0.52929688
 N   0.60631561 0.07009888 0.50640869
 C   0.67852020 0.02829742 0.55139923
 C   0.65422058 0.08007812 0.53759766
 H   0.56270599 0.98512268 0.97612000
 H   0.66738129 0.12360382 0.54819489
 H   0.71619415 0.01999664 0.57591248
Zn   0.86241913 0.07530212 0.60292053
Zn   0.59281158 0.66759491 0.88620758
 C   0.62872314 0.54988861 0.88450623
 N   0.61611938 0.50270844 0.84540558
 N   0.61672211 0.60089111 0.84860992
 C   0.60029602 0.52421570 0.79649353
 C   0.60080719 0.58338928 0.79831696
 H   0.64179230 0.54808044 0.92531586
 H   0.59078979 0.61431122 0.76719666
 H   0.58979797 0.49578857 0.76360321
 C   0.05750275 0.28749847 0.58761597
 N   0.07582092 0.30479431 0.53139496
 N   0.09250641 0.23370361 0.59272003
 C   0.11478424 0.26560974 0.51110840
 C   0.12480927 0.22312164 0.54779816
 H   0.02851105 0.30801392 0.61489868
 H   0.15340424 0.18600464 0.54499817
 H   0.13371277 0.27051544 0.97188568
 C   0.59181976 0.63461304 0.50229645
 N   0.63998413 0.60291290 0.53139496
 N   0.62609863 0.65422058 0.95488739
 C   0.69120789 0.60610199 0.50360107
 C   0.68299866 0.63702393 0.95789337
 H   0.54730988 0.64089203 0.51241302
 H   0.71392059 0.64811707 0.92720795
 H   0.73051453 0.58609772 0.51830292
 C   0.99269104 0.09590912 0.62280273
 N   0.01599884 0.14678192 0.65431976
 N   0.92990112 0.10631561 0.63138580
 C   0.97170258 0.17848206 0.67642212
 C   0.91992188 0.15418243 0.66258240
 H   0.01487732 0.06270599 0.60109711
 H   0.87639618 0.16738129 0.67321777
 H   0.98000336 0.21619415 0.70089722
Zn   0.42469788 0.86241913 0.97789764
Zn   0.83240509 0.59281158 0.76119232
 C   0.95011139 0.62872314 0.75949097
 N   0.99729156 0.61611938 0.72038269
 N   0.89910889 0.61672211 0.72358704
 C   0.97578430 0.60029602 0.67151642
 C   0.91661072 0.60080719 0.67329407
 H   0.95191956 0.64179230 0.80029297
 H   0.88568878 0.59078979 0.64221954
 H   0.00421143 0.58979797 0.63858032
 C   0.21250153 0.05750275 0.96260071
 N   0.19520569 0.07582092 0.90641022
 N   0.26629639 0.09250641 0.96769714
 C   0.23439026 0.11478424 0.88609314
 C   0.27692413 0.12480927 0.92278290
 H   0.19198608 0.02851105 0.98991394
 H   0.31399536 0.15340424 0.92001343
 H   0.22948456 0.13370514 0.84690857
 C   0.86538696 0.59181976 0.87731171
 N   0.89708710 0.63998413 0.90641022
 N   0.84581757 0.62609863 0.82991028
 C   0.89389801 0.69120789 0.87861633
 C   0.86302185 0.68299866 0.83290863
 H   0.85910797 0.54730988 0.88739777
 H   0.85188293 0.71392059 0.80219269
 H   0.91390228 0.73051453 0.89328766
 C   0.40409088 0.99269104 0.99778748
 N   0.35321808 0.01599884 0.52929688
 N   0.39368439 0.92990112 0.50640869
 C   0.32151794 0.97170258 0.55139923
 C   0.34581757 0.91992188 0.53759766
 H   0.43729401 0.01487732 0.97612000
 H   0.33261871 0.87639618 0.54819489
 H   0.28380585 0.98000336 0.57591248
Zn   0.13758087 0.92469788 0.60292053
Zn   0.40718842 0.33240509 0.88620758
 C   0.37132263 0.45011139 0.88450623
 N   0.38388062 0.49729156 0.84540558
 N   0.38332367 0.39910889 0.84860992
 C   0.39970398 0.47578430 0.79649353
 C   0.39919281 0.41661072 0.79831696
 H   0.35820770 0.45191956 0.92531586
 H   0.40921021 0.38568878 0.76719666
 H   0.41020203 0.50421143 0.76360321
 C   0.94249725 0.71250153 0.58761597
 N   0.92422485 0.69520569 0.53139496
 N   0.90749359 0.76629639 0.59272003
 C   0.88521576 0.73439026 0.51110840
 C   0.87519073 0.77692413 0.54779816
 H   0.97148895 0.69198608 0.61489868
 H   0.84659576 0.81399536 0.54499817
 H   0.86629486 0.72948456 0.97188568
 C   0.40822601 0.36538696 0.50229645
 N   0.36001587 0.39708710 0.53139496
 N   0.37390137 0.34581757 0.95488739
 C   0.30879211 0.39389801 0.50360107
 C   0.31700134 0.36302185 0.95789337
 H   0.45281982 0.35910797 0.51241302
 H   0.28607941 0.35188293 0.92720795
 H   0.26948547 0.41390228 0.51830292
 C   0.00730896 0.90409088 0.62280273
 N   0.98400116 0.85321808 0.65431976
 N   0.07009888 0.89368439 0.63138580
 C   0.02829742 0.82151794 0.67642212
 C   0.08007812 0.84581757 0.66258240
 H   0.98512268 0.93729401 0.60109711
 H   0.12360382 0.83261871 0.67321777
 H   0.01999664 0.78380585 0.70089722
Zn   0.42469788 0.13758087 0.72789764
Zn   0.83240509 0.40718842 0.51119232
 C   0.95011139 0.37132263 0.50949097
 N   0.99729156 0.38388062 0.97038269
 N   0.89910889 0.38332367 0.97358704
 C   0.97578430 0.39970398 0.92151642
 C   0.91661072 0.39919281 0.92329407
 H   0.95191956 0.35820770 0.55029297
 H   0.88568878 0.40921021 0.89221954
 H   0.00421143 0.41020203 0.88858032
 C   0.21250153 0.94249725 0.71260071
 N   0.19520569 0.92422485 0.65641022
 N   0.26629639 0.90749359 0.71769714
 C   0.23439026 0.88521576 0.63609314
 C   0.27692413 0.87519073 0.67278290
 H   0.19198608 0.97148895 0.73991394
 H   0.31399536 0.84659576 0.67001343
 H   0.22948456 0.86628723 0.59690857
 C   0.86538696 0.40822601 0.62731171
 N   0.89708710 0.36001587 0.65641022
 N   0.84581757 0.37390137 0.57991028
 C   0.89389801 0.30879211 0.62861633
 C   0.86302185 0.31700134 0.58290863
 H   0.85910797 0.45269012 0.63739777
 H   0.85188293 0.28607941 0.55219269
 H   0.91390228 0.26948547 0.64328766
 C   0.40409088 0.00730896 0.74778748
 N   0.35321808 0.98400116 0.77929688
 N   0.39368439 0.07009888 0.75640869
 C   0.32151794 0.02829742 0.80139923
 C   0.34581757 0.08007812 0.78759766
 H   0.43729401 0.98512268 0.72612000
 H   0.33261871 0.12360382 0.79819489
 H   0.28380585 0.01999664 0.82591248
Zn   0.57530212 0.86241913 0.72789764
Zn   0.16759491 0.59281158 0.51119232
 C   0.04988861 0.62872314 0.50949097
 N   0.00270844 0.61611938 0.97038269
 N   0.10089111 0.61672211 0.97358704
 C   0.02421570 0.60029602 0.92151642
 C   0.08338928 0.60080719 0.92329407
 H   0.04808044 0.64179230 0.55029297
 H   0.11431122 0.59078979 0.89221954
 H   0.99578857 0.58979797 0.88858032
 C   0.78749847 0.05750275 0.71260071
 N   0.80479431 0.07582092 0.65641022
 N   0.73370361 0.09250641 0.71769714
 C   0.76560974 0.11478424 0.63609314
 C   0.72312164 0.12480927 0.67278290
 H   0.80801392 0.02851105 0.73991394
 H   0.68600464 0.15340424 0.67001343
 H   0.77051544 0.13370514 0.59690857
 C   0.13461304 0.59181976 0.62731171
 N   0.10291290 0.63998413 0.65641022
 N   0.15418243 0.62609863 0.57991028
 C   0.10610199 0.69120789 0.62861633
 C   0.13702393 0.68299866 0.58290863
 H   0.14089203 0.54730988 0.63739777
 H   0.14811707 0.71392059 0.55219269
 H   0.08609772 0.73051453 0.64328766
 C   0.59590912 0.99269104 0.74778748
 N   0.64678192 0.01599884 0.77929688
 N   0.60631561 0.92990112 0.75640869
 C   0.67852020 0.97170258 0.80139923
 C   0.65422058 0.91992188 0.78759766
 H   0.56270599 0.01487732 0.72612000
 H   0.66738129 0.87639618 0.79819489
 H   0.71619415 0.98000336 0.82591248
Zn   0.36241913 0.42469788 0.60292053
Zn   0.09281158 0.83240509 0.88620758
 C   0.12872314 0.95011139 0.88450623
 N   0.11611938 0.99729156 0.84540558
 N   0.11672211 0.89910889 0.84860992
 C   0.10029602 0.97578430 0.79649353
 C   0.10080719 0.91661072 0.79831696
 H   0.14179230 0.95191956 0.92531586
 H   0.09078979 0.88568878 0.76719666
 H   0.08979797 0.00421143 0.76360321
 C   0.55750275 0.21250153 0.58761597
 N   0.57582092 0.19520569 0.53139496
 N   0.59250641 0.26629639 0.59272003
 C   0.61478424 0.23439026 0.51110840
 C   0.62480927 0.27692413 0.54779816
 H   0.52851105 0.19198608 0.61489868
 H   0.65340424 0.31399536 0.54499817
 H   0.63371277 0.22948456 0.97188568
 C   0.09181976 0.86538696 0.50229645
 N   0.13999176 0.89708710 0.53139496
 N   0.12609863 0.84581757 0.95488739
 C   0.19120789 0.89389801 0.50360107
 C   0.18299866 0.86302185 0.95789337
 H   0.04730988 0.85910797 0.51241302
 H   0.21392059 0.85188293 0.92720795
 H   0.23051453 0.91390228 0.51830292
 C   0.49269104 0.40409088 0.62280273
 N   0.51599884 0.35321808 0.65431976
 N   0.42990112 0.39368439 0.63138580
 C   0.47170258 0.32151794 0.67642212
 C   0.41992188 0.34581757 0.66258240
 H   0.51492310 0.43729401 0.60109711
 H   0.37639618 0.33261871 0.67321777
 H   0.48000336 0.28380585 0.70089722
Zn   0.63761902 0.57530212 0.60292053
Zn   0.90718842 0.16759491 0.88620758
 C   0.87132263 0.04988861 0.88450623
 N   0.88392639 0.00270844 0.84540558
 N   0.88332367 0.10089111 0.84860992
 C   0.89970398 0.02421570 0.79649353
 C   0.89919281 0.08338928 0.79831696
 H   0.85820770 0.04808044 0.92531586
 H   0.90921021 0.11431122 0.76719666
 H   0.91020203 0.99578857 0.76360321
 C   0.44249725 0.78749847 0.58761597
 N   0.42422485 0.80479431 0.53139496
 N   0.40749359 0.73370361 0.59272003
 C   0.38521576 0.76560974 0.51110840
 C   0.37519073 0.72312164 0.54779816
 H   0.47148895 0.80801392 0.61489868
 H   0.34659576 0.68600464 0.54499817
 H   0.36629486 0.77051544 0.97188568
 C   0.90822601 0.13461304 0.50229645
 N   0.86001587 0.10291290 0.53139496
 N   0.87390137 0.15418243 0.95488739
 C   0.80879211 0.10610199 0.50360107
 C   0.81700134 0.13702393 0.95789337
 H   0.95269012 0.14089203 0.51241302
 H   0.78607941 0.14811707 0.92720795
 H   0.76948547 0.08609772 0.51830292
 C   0.50730896 0.59590912 0.62280273
 N   0.48400116 0.64678192 0.65431976
 N   0.57009888 0.60631561 0.63138580
 C   0.52829742 0.67852020 0.67642212
 C   0.58012390 0.65422058 0.66258240
 H   0.48512268 0.56270599 0.60109711
 H   0.62360382 0.66738129 0.67321777
 H   0.51999664 0.71619415 0.70089722
He   0.09020996 0.60516357 0.24160767
Ne   0.09803009 0.58813477 0.24879456
He   0.07554626 0.66484833 0.25318909
Ne   0.07568359 0.68008423 0.26734161
He   0.03817749 0.62738800 0.22431946
Ne   0.01792145 0.62180328 0.22236633
He   0.08824921 0.63873291 0.19438171
Ne   0.09571838 0.63936615 0.17503357
He   0.66135406 0.89164734 0.04326630
Ne   0.65769196 0.88253784 0.06208038
He   0.65776825 0.94345856 0.01973724
Ne   0.65224457 0.96385193 0.02454376
He   0.63603973 0.89589691 0.99340057
Ne   0.61842346 0.88959503 0.98347473
He   0.69907379 0.90733337 0.99047852
Ne   0.71621704 0.90741730 0.97920227
He   0.39488220 0.59022522 0.36661530
Ne   0.41186523 0.59803009 0.37377930
He   0.33518219 0.57554626 0.37820435
Ne   0.31993103 0.57568359 0.39236450
He   0.36128998 0.58824158 0.31939697
Ne   0.36064148 0.59572601 0.30001831
He   0.37263489 0.53817749 0.34934235
Ne   0.37820435 0.51792145 0.34738922
He   0.10411835 0.13603973 0.11842346
Ne   0.11043549 0.11842346 0.10848999
He   0.10835266 0.16133118 0.16828156
Ne   0.11746216 0.15766144 0.18706512
He   0.09266663 0.19907379 0.11550140
Ne   0.09259033 0.21621704 0.10422516
He   0.05654144 0.15776825 0.14476013
Ne   0.03614044 0.15224457 0.14956665
He   0.90978241 0.39487457 0.24160767
Ne   0.90196991 0.41187286 0.24879456
He   0.92446899 0.33518219 0.25318146
Ne   0.92434692 0.31992340 0.26734924
He   0.96182251 0.37263489 0.22431946
Ne   0.98207855 0.37820435 0.22237396
He   0.91175079 0.36128998 0.19438171
Ne   0.90428162 0.36064148 0.17503357
He   0.33866119 0.10834503 0.04326630
Ne   0.34233856 0.11746216 0.06208801
He   0.34223175 0.05654144 0.01973724
Ne   0.34775543 0.03614807 0.02454376
He   0.36396027 0.10411835 0.99340057
Ne   0.38157654 0.11043549 0.98346710
He   0.30092621 0.09266663 0.99047852
Ne   0.28378296 0.09258270 0.97920227
He   0.60515594 0.40978241 0.36660767
Ne   0.58814240 0.40196991 0.37377930
He   0.66484833 0.42446899 0.37821198
Ne   0.68007660 0.42434692 0.39235687
He   0.63873291 0.41175842 0.31939697
Ne   0.63936615 0.40427399 0.30001831
He   0.62738800 0.46182251 0.34934235
Ne   0.62180328 0.48207855 0.34738922
He   0.89589691 0.86396790 0.11841583
Ne   0.88959503 0.88156891 0.10849762
He   0.89164734 0.83866882 0.16828156
Ne   0.88253784 0.84233856 0.18706512
He   0.90733337 0.80092621 0.11550140
Ne   0.90740967 0.78378296 0.10422516
He   0.94345856 0.84223175 0.14476013
Ne   0.96385956 0.84775543 0.14956665
He   0.91175079 0.63873291 0.44438171
Ne   0.90428162 0.63936615 0.42503357
He   0.96182251 0.62738800 0.47431946
Ne   0.98207855 0.62180328 0.47236633
He   0.90979004 0.60516357 0.49160767
Ne   0.90196991 0.58813477 0.49879456
He   0.92446899 0.66484833 0.50318909
Ne   0.92434692 0.68008423 0.51734161
He   0.36396027 0.89589691 0.24340057
Ne   0.38157654 0.88959503 0.23347473
He   0.33866119 0.89165497 0.29326630
Ne   0.34233856 0.88253784 0.31208801
He   0.30092621 0.90733337 0.24047852
Ne   0.28378296 0.90741730 0.22920227
He   0.34223175 0.94345856 0.26973724
Ne   0.34775543 0.96385193 0.27454376
He   0.08824921 0.36128998 0.44438171
Ne   0.09571838 0.36064148 0.42503357
He   0.03817749 0.37263489 0.47431946
Ne   0.01792145 0.37820435 0.47237396
He   0.09021759 0.39487457 0.49160767
Ne   0.09803009 0.41187286 0.49879456
He   0.07554626 0.33518219 0.50318146
Ne   0.07568359 0.31992340 0.51734924
He   0.63603973 0.10411835 0.24340057
Ne   0.61842346 0.11043549 0.23346710
He   0.66135406 0.10835266 0.29326630
Ne   0.65769196 0.11746216 0.31208038
He   0.69907379 0.09266663 0.24047852
Ne   0.71621704 0.09258270 0.22920227
He   0.65776825 0.05654144 0.26973724
Ne   0.65224457 0.03614807 0.27454376
He   0.86128998 0.91175842 0.31939697
Ne   0.86064148 0.90427399 0.30001831
He   0.89488220 0.90977478 0.36661530
Ne   0.91186523 0.90196991 0.37377930
He   0.83518219 0.92446899 0.37820435
Ne   0.81993103 0.92434692 0.39236450
He   0.87265778 0.96182251 0.34934235
Ne   0.87824249 0.98207855 0.34738922
He   0.60411835 0.36396027 0.11842346
Ne   0.61043549 0.38157654 0.10848999
He   0.60835266 0.33866882 0.16828156
Ne   0.61746216 0.34233856 0.18706512
He   0.59266663 0.30092621 0.11550140
Ne   0.59259033 0.28378296 0.10422516
He   0.55654144 0.34223175 0.14476013
Ne   0.53614044 0.34775543 0.14956665
He   0.13871002 0.08824158 0.31939697
Ne   0.13936615 0.09572601 0.30001831
He   0.10511780 0.09022522 0.36661530
Ne   0.08813477 0.09803009 0.37377930
He   0.16481781 0.07554626 0.37820435
Ne   0.18006897 0.07568359 0.39236450
He   0.12736511 0.03817749 0.34934235
Ne   0.12179565 0.01792145 0.34738922
He   0.39589691 0.63603210 0.11841583
Ne   0.38959503 0.61843109 0.10849762
He   0.39163971 0.66134644 0.16828918
Ne   0.38253784 0.65769196 0.18706512
He   0.40733337 0.69907379 0.11550140
Ne   0.40741730 0.71621704 0.10422516
He   0.44345856 0.65776825 0.14476013
Ne   0.46385956 0.65224457 0.14956665
He   0.53817749 0.12736511 0.47431946
Ne   0.51792145 0.12179565 0.47237396
He   0.58824921 0.13871002 0.44438171
Ne   0.59571838 0.13936615 0.42503357
He   0.59021759 0.10512543 0.49160767
Ne   0.59803009 0.08812714 0.49879456
He   0.57554626 0.16481781 0.50318146
Ne   0.57568359 0.18007660 0.51734924
He   0.19907379 0.40733337 0.24047852
Ne   0.21621704 0.40741730 0.22920227
He   0.15776825 0.44345856 0.26973724
Ne   0.15224457 0.46385193 0.27454376
He   0.13603973 0.39589691 0.24340057
Ne   0.11842346 0.38959503 0.23347473
He   0.16133881 0.39165497 0.29326630
Ne   0.15766144 0.38253784 0.31208801
He   0.87265778 0.03817749 0.09934235
Ne   0.87824249 0.01792145 0.09738922
He   0.89488220 0.09022522 0.11661530
Ne   0.91186523 0.09803009 0.12377930
He   0.83518219 0.07554626 0.12820435
Ne   0.81993103 0.07568359 0.14236450
He   0.86128998 0.08824158 0.06939697
Ne   0.86064148 0.09572601 0.05001831
He   0.59266663 0.69907379 0.36550140
Ne   0.59259033 0.71621704 0.35422516
He   0.55654144 0.65776825 0.39476013
Ne   0.53614044 0.65224457 0.39956665
He   0.60411835 0.63603973 0.36842346
Ne   0.61043549 0.61842346 0.35848999
He   0.60836029 0.66134644 0.41828918
Ne   0.61746216 0.65769196 0.43706512
He   0.46182251 0.87265778 0.47431946
Ne   0.48207855 0.87824249 0.47236633
He   0.41175079 0.86128998 0.44438171
Ne   0.40428162 0.86064148 0.42503357
He   0.40978241 0.89487457 0.49160767
Ne   0.40196991 0.91187286 0.49879456
He   0.42446899 0.83518219 0.50318146
Ne   0.42434692 0.81992340 0.51734924
He   0.80092621 0.59266663 0.24047852
Ne   0.78378296 0.59259033 0.22920227
He   0.84223175 0.55654144 0.26973724
Ne   0.84775543 0.53614807 0.27454376
He   0.86396027 0.60411835 0.24340057
Ne   0.88157654 0.61043549 0.23346710
He   0.83866119 0.60834503 0.29326630
Ne   0.84233856 0.61746216 0.31208801
He   0.12736511 0.96182251 0.09934235
Ne   0.12179565 0.98207855 0.09738922
He   0.10511780 0.90977478 0.11661530
Ne   0.08813477 0.90196991 0.12377930
He   0.16481781 0.92446899 0.12820435
Ne   0.18006897 0.92434692 0.14236450
He   0.13871002 0.91175842 0.06939697
Ne   0.13936615 0.90427399 0.05001831
He   0.40733337 0.30092621 0.36550140
Ne   0.40741730 0.28378296 0.35422516
He   0.44345856 0.34223175 0.39476013
Ne   0.46385956 0.34775543 0.39956665
He   0.39589691 0.36396790 0.36841583
Ne   0.38959503 0.38156891 0.35849762
He   0.39164734 0.33866882 0.41828156
Ne   0.38253784 0.34233856 0.43706512
He   0.41175079 0.13871002 0.19438171
Ne   0.40428162 0.13936615 0.17503357
He   0.42446899 0.16481781 0.25318146
Ne   0.42434692 0.18007660 0.26734924
He   0.46182251 0.12736511 0.22431946
Ne   0.48207855 0.12179565 0.22237396
He   0.40978241 0.10512543 0.24160767
Ne   0.40196991 0.08812714 0.24879456
He   0.84223175 0.44345856 0.01973724
Ne   0.84775543 0.46385193 0.02454376
He   0.83866119 0.39165497 0.04326630
Ne   0.84233856 0.38253784 0.06208801
He   0.80092621 0.40733337 0.99047852
Ne   0.78378296 0.40741730 0.97920227
He   0.86396027 0.39589691 0.99340057
Ne   0.88157654 0.38959503 0.98347473
He   0.58824921 0.86128998 0.19438171
Ne   0.59571838 0.86064148 0.17503357
He   0.57554626 0.83518219 0.25318146
Ne   0.57568359 0.81992340 0.26734924
He   0.53817749 0.87265778 0.22431946
Ne   0.51792145 0.87824249 0.22236633
He   0.59021759 0.89487457 0.24160767
Ne   0.59803009 0.91187286 0.24879456
He   0.15776825 0.55654144 0.01973724
Ne   0.15224457 0.53614807 0.02454376
He   0.16133881 0.60834503 0.04326630
Ne   0.15766144 0.61746216 0.06208801
He   0.19907379 0.59266663 0.99047852
Ne   0.21621704 0.59259033 0.97920227
He   0.13603973 0.60411835 0.99340057
Ne   0.11842346 0.61043549 0.98346710
He   0.33518219 0.42446899 0.12820435
Ne   0.31993103 0.42434692 0.14236450
He   0.37263489 0.46182251 0.09934235
Ne   0.37820435 0.48207855 0.09738922
He   0.36128998 0.41175842 0.06939697
Ne   0.36064148 0.40427399 0.05001831
He   0.39488220 0.40977478 0.11661530
Ne   0.41186523 0.40196991 0.12377930
He   0.09266663 0.80092621 0.36550140
Ne   0.09258270 0.78378296 0.35422516
He   0.05654144 0.84223175 0.39476013
Ne   0.03614044 0.84775543 0.39956665
He   0.10411835 0.86396027 0.36842346
Ne   0.11043549 0.88157654 0.35848999
He   0.10835266 0.83866882 0.41828156
Ne   0.11746216 0.84233856 0.43706512
He   0.66484833 0.57554626 0.12821198
Ne   0.68007660 0.57568359 0.14235687
He   0.62738800 0.53817749 0.09934235
Ne   0.62180328 0.51792145 0.09738922
He   0.63873291 0.58824158 0.06939697
Ne   0.63936615 0.59572601 0.05001831
He   0.60515594 0.59021759 0.11660767
Ne   0.58814240 0.59803009 0.12377930
He   0.90733337 0.19907379 0.36550140
Ne   0.90740967 0.21621704 0.35422516
He   0.94345856 0.15776825 0.39476013
Ne   0.96385956 0.15224457 0.39956665
He   0.89589691 0.13603210 0.36841583
Ne   0.88959503 0.11843109 0.35849762
He   0.89164734 0.16133118 0.41828156
Ne   0.88253784 0.15766144 0.43706512
He   0.09020996 0.60516357 0.74160767
Ne   0.09803009 0.58813477 0.74879456
He   0.07554626 0.66484833 0.75318909
Ne   0.07568359 0.68008423 0.76734161
He   0.03817749 0.62738800 0.72431946
Ne   0.01792145 0.62180328 0.72236633
He   0.08824921 0.63873291 0.69438171
Ne   0.09571838 0.63936615 0.67503357
He   0.63603973 0.89589691 0.49340057
Ne   0.61842346 0.88959503 0.48347473
He   0.69907379 0.90733337 0.49047852
Ne   0.71621704 0.90741730 0.47920227
He   0.66135406 0.89164734 0.54326630
Ne   0.65769196 0.88253784 0.56208038
He   0.65776825 0.94345856 0.51973724
Ne   0.65224457 0.96385193 0.52454376
He   0.39488220 0.59022522 0.86661530
Ne   0.41186523 0.59803009 0.87377930
He   0.33518219 0.57554626 0.87820435
Ne   0.31993103 0.57568359 0.89236450
He   0.36128998 0.58824158 0.81939697
Ne   0.36064148 0.59572601 0.80001831
He   0.37263489 0.53817749 0.84934235
Ne   0.37820435 0.51792145 0.84738922
He   0.10411835 0.13603973 0.61842346
Ne   0.11043549 0.11842346 0.60848999
He   0.10835266 0.16133118 0.66828156
Ne   0.11746216 0.15766144 0.68706512
He   0.09266663 0.19907379 0.61550140
Ne   0.09258270 0.21621704 0.60422516
He   0.05654144 0.15776825 0.64476013
Ne   0.03614044 0.15224457 0.64956665
He   0.90978241 0.39487457 0.74160767
Ne   0.90196991 0.41187286 0.74879456
He   0.92446899 0.33518219 0.75318146
Ne   0.92434692 0.31992340 0.76734924
He   0.96182251 0.37263489 0.72431946
Ne   0.98207855 0.37820435 0.72237396
He   0.91175079 0.36128998 0.69438171
Ne   0.90428162 0.36064148 0.67503357
He   0.36396027 0.10411835 0.49340057
Ne   0.38157654 0.11043549 0.48346710
He   0.30092621 0.09266663 0.49047852
Ne   0.28378296 0.09258270 0.47920227
He   0.33866119 0.10834503 0.54326630
Ne   0.34233856 0.11746216 0.56208801
He   0.34223175 0.05654144 0.51973724
Ne   0.34775543 0.03614807 0.52454376
He   0.60515594 0.40978241 0.86660767
Ne   0.58814240 0.40196991 0.87377930
He   0.66484833 0.42446899 0.87821198
Ne   0.68007660 0.42434692 0.89235687
He   0.63873291 0.41175842 0.81939697
Ne   0.63937378 0.40427399 0.80001831
He   0.62738800 0.46182251 0.84934235
Ne   0.62180328 0.48207855 0.84738922
He   0.89589691 0.86396790 0.61841583
Ne   0.88959503 0.88156891 0.60849762
He   0.89164734 0.83866882 0.66828156
Ne   0.88253784 0.84233856 0.68706512
He   0.90733337 0.80092621 0.61550140
Ne   0.90740967 0.78378296 0.60422516
He   0.94345856 0.84223175 0.64476013
Ne   0.96385956 0.84775543 0.64956665
He   0.90979004 0.60516357 0.99160767
Ne   0.90196991 0.58813477 0.99879456
He   0.92446899 0.66484833 0.00318909
Ne   0.92434692 0.68008423 0.01734161
He   0.91175079 0.63873291 0.94438171
Ne   0.90428162 0.63936615 0.92503357
He   0.96182251 0.62738800 0.97431946
Ne   0.98207855 0.62180328 0.97236633
He   0.36396027 0.89589691 0.74340057
Ne   0.38157654 0.88959503 0.73347473
He   0.33866119 0.89165497 0.79326630
Ne   0.34233856 0.88253784 0.81208801
He   0.30092621 0.90733337 0.74047852
Ne   0.28378296 0.90741730 0.72920227
He   0.34223175 0.94345856 0.76973724
Ne   0.34775543 0.96385193 0.77454376
He   0.09021759 0.39487457 0.99160767
Ne   0.09803009 0.41187286 0.99879456
He   0.07554626 0.33518219 0.00318146
Ne   0.07568359 0.31992340 0.01734924
He   0.08824921 0.36128998 0.94438171
Ne   0.09571838 0.36064148 0.92503357
He   0.03817749 0.37263489 0.97431946
Ne   0.01792145 0.37820435 0.97237396
He   0.63603973 0.10411835 0.74340057
Ne   0.61842346 0.11043549 0.73346710
He   0.66135406 0.10835266 0.79326630
Ne   0.65769196 0.11746216 0.81208038
He   0.69907379 0.09266663 0.74047852
Ne   0.71621704 0.09258270 0.72920227
He   0.65776825 0.05654144 0.76973724
Ne   0.65224457 0.03614807 0.77454376
He   0.86128998 0.91175842 0.81939697
Ne   0.86064148 0.90427399 0.80001831
He   0.89488220 0.90977478 0.86661530
Ne   0.91186523 0.90196991 0.87377930
He   0.83518219 0.92446899 0.87820435
Ne   0.81993103 0.92434692 0.89236450
He   0.87265778 0.96182251 0.84934235
Ne   0.87824249 0.98207855 0.84738922
He   0.60411835 0.36396027 0.61842346
Ne   0.61043549 0.38157654 0.60848999
He   0.60835266 0.33866882 0.66828156
Ne   0.61746216 0.34233856 0.68706512
He   0.59266663 0.30092621 0.61550140
Ne   0.59259033 0.28378296 0.60422516
He   0.55654144 0.34223175 0.64476013
Ne   0.53614044 0.34775543 0.64956665
He   0.13871002 0.08824158 0.81939697
Ne   0.13936615 0.09572601 0.80001831
He   0.10511780 0.09022522 0.86661530
Ne   0.08813477 0.09803009 0.87377930
He   0.16481781 0.07554626 0.87820435
Ne   0.18006897 0.07568359 0.89236450
He   0.12736511 0.03817749 0.84934235
Ne   0.12179565 0.01792145 0.84738922
He   0.39589691 0.63603210 0.61841583
Ne   0.38959503 0.61843109 0.60849762
He   0.39163971 0.66134644 0.66828918
Ne   0.38253784 0.65769196 0.68706512
He   0.40733337 0.69907379 0.61550140
Ne   0.40741730 0.71621704 0.60422516
He   0.44345856 0.65776825 0.64476013
Ne   0.46385956 0.65224457 0.64956665
He   0.59021759 0.10512543 0.99160767
Ne   0.59803009 0.08812714 0.99879456
He   0.57554626 0.16481781 0.00318146
Ne   0.57568359 0.18007660 0.01734924
He   0.53817749 0.12736511 0.97431946
Ne   0.51792145 0.12179565 0.97237396
He   0.58824921 0.13871002 0.94438171
Ne   0.59571838 0.13936615 0.92503357
He   0.19907379 0.40733337 0.74047852
Ne   0.21621704 0.40741730 0.72920227
He   0.15776825 0.44345856 0.76973724
Ne   0.15224457 0.46385193 0.77454376
He   0.13603973 0.39589691 0.74340057
Ne   0.11842346 0.38959503 0.73347473
He   0.16133881 0.39165497 0.79326630
Ne   0.15766144 0.38253784 0.81208801
He   0.87265778 0.03817749 0.59934235
Ne   0.87824249 0.01792145 0.59738922
He   0.89488220 0.09022522 0.61661530
Ne   0.91186523 0.09803009 0.62377930
He   0.83518219 0.07554626 0.62820435
Ne   0.81993103 0.07568359 0.64236450
He   0.86128998 0.08824158 0.56939697
Ne   0.86064148 0.09572601 0.55001831
He   0.59266663 0.69907379 0.86550140
Ne   0.59259033 0.71621704 0.85422516
He   0.55654144 0.65776825 0.89476013
Ne   0.53614044 0.65224457 0.89956665
He   0.60411835 0.63603973 0.86842346
Ne   0.61043549 0.61842346 0.85848999
He   0.60836029 0.66134644 0.91828918
Ne   0.61746216 0.65769196 0.93706512
He   0.40978241 0.89487457 0.99160767
Ne   0.40196991 0.91187286 0.99879456
He   0.42446899 0.83518219 0.00318146
Ne   0.42434692 0.81992340 0.01734924
He   0.46182251 0.87265778 0.97431946
Ne   0.48207855 0.87824249 0.97236633
He   0.41175079 0.86128998 0.94438171
Ne   0.40428162 0.86064148 0.92503357
He   0.80092621 0.59266663 0.74047852
Ne   0.78378296 0.59259033 0.72920227
He   0.84223175 0.55654144 0.76973724
Ne   0.84775543 0.53614807 0.77454376
He   0.86396027 0.60411835 0.74340057
Ne   0.88157654 0.61043549 0.73346710
He   0.83866119 0.60834503 0.79326630
Ne   0.84233856 0.61746216 0.81208801
He   0.12736511 0.96182251 0.59934235
Ne   0.12179565 0.98207855 0.59738922
He   0.10511780 0.90977478 0.61661530
Ne   0.08813477 0.90196991 0.62377930
He   0.16481781 0.92446899 0.62820435
Ne   0.18006897 0.92434692 0.64236450
He   0.13871002 0.91175842 0.56939697
Ne   0.13936615 0.90427399 0.55001831
He   0.40733337 0.30092621 0.86550140
Ne   0.40741730 0.28378296 0.85422516
He   0.44345856 0.34223175 0.89476013
Ne   0.46385956 0.34775543 0.89956665
He   0.39589691 0.36396790 0.86841583
Ne   0.38959503 0.38156891 0.85849762
He   0.39164734 0.33866882 0.91828156
Ne   0.38253784 0.34233856 0.93706512
He   0.41175079 0.13871002 0.69438171
Ne   0.40428162 0.13936615 0.67503357
He   0.42446899 0.16481781 0.75318146
Ne   0.42434692 0.18007660 0.76734924
He   0.46182251 0.12736511 0.72431946
Ne   0.48207855 0.12179565 0.72237396
He   0.40978241 0.10512543 0.74160767
Ne   0.40196991 0.08812714 0.74879456
He   0.80092621 0.40733337 0.49047852
Ne   0.78378296 0.40741730 0.47920227
He   0.86396027 0.39589691 0.49340057
Ne   0.88157654 0.38959503 0.48347473
He   0.84223175 0.44345856 0.51973724
Ne   0.84775543 0.46385193 0.52454376
He   0.83866119 0.39165497 0.54326630
Ne   0.84233856 0.38253784 0.56208801
He   0.58824921 0.86128998 0.69438171
Ne   0.59571838 0.86064148 0.67503357
He   0.57554626 0.83518219 0.75318146
Ne   0.57568359 0.81992340 0.76734924
He   0.53817749 0.87265778 0.72431946
Ne   0.51792145 0.87824249 0.72236633
He   0.59021759 0.89487457 0.74160767
Ne   0.59803009 0.91187286 0.74879456
He   0.19907379 0.59266663 0.49047852
Ne   0.21621704 0.59259033 0.47920227
He   0.13603973 0.60411835 0.49340057
Ne   0.11842346 0.61043549 0.48346710
He   0.15776825 0.55654144 0.51973724
Ne   0.15224457 0.53614807 0.52454376
He   0.16133881 0.60834503 0.54326630
Ne   0.15766144 0.61746216 0.56208801
He   0.33518219 0.42446899 0.62820435
Ne   0.31993103 0.42434692 0.64236450
He   0.37263489 0.46182251 0.59934235
Ne   0.37820435 0.48207855 0.59738922
He   0.36128998 0.41175842 0.56939697
Ne   0.36064148 0.40427399 0.55001831
He   0.39488220 0.40977478 0.61661530
Ne   0.41186523 0.40196991 0.62377930
He   0.09266663 0.80092621 0.86550140
Ne   0.09259033 0.78378296 0.85422516
He   0.05654144 0.84223175 0.89476013
Ne   0.03614044 0.84775543 0.89956665
He   0.10411835 0.86396027 0.86842346
Ne   0.11043549 0.88157654 0.85848999
He   0.10835266 0.83866882 0.91828156
Ne   0.11746216 0.84233856 0.93706512
He   0.66484833 0.57554626 0.62821198
Ne   0.68008423 0.57568359 0.64235687
He   0.62738800 0.53817749 0.59934235
Ne   0.62180328 0.51792145 0.59738922
He   0.63873291 0.58824158 0.56939697
Ne   0.63936615 0.59572601 0.55001831
He   0.60515594 0.59021759 0.61660767
Ne   0.58814240 0.59803009 0.62377930
He   0.90733337 0.19907379 0.86550140
Ne   0.90741730 0.21621704 0.85422516
He   0.94345856 0.15776825 0.89476013
Ne   0.96385956 0.15224457 0.89956665
He   0.89589691 0.13603210 0.86841583
Ne   0.88959503 0.11843109 0.85849762
He   0.89164734 0.16133118 0.91828156
Ne   0.88253784 0.15766144 0.93706512
