data_block_1
_audit_creation_date         'Thu Jan 23 22:26:18 2020'
_audit_creation_method       'generated by GDIS v0.90'


_cell_length_a             23.2521
_cell_length_b             23.2521
_cell_length_c             25.2920
_cell_angle_alpha          90.00
_cell_angle_beta          -90.00
_cell_angle_gamma          90.00


_symmetry_space_group_name_H-M   'P 1'
_symmetry_Int_Tables_number       1


loop_
_atom_site_label
_atom_site_fract_x
_atom_site_fract_y
_atom_site_fract_z
Zn    0.0753    0.6376    0.2279
Zn    0.6676    0.9072    0.0112
 C    0.5499    0.8713    0.0095
 N    0.5027    0.8839    0.4704
 N    0.6009    0.8833    0.4736
 C    0.5242    0.8997    0.4215
 C    0.5834    0.8992    0.4233
 H    0.5481    0.8582    0.0503
 H    0.6143    0.9092    0.3922
 H    0.4958    0.9102    0.3886
 C    0.2875    0.4425    0.2126
 N    0.3048    0.4242    0.1564
 N    0.2337    0.4075    0.2177
 C    0.2656    0.3852    0.1361
 C    0.2231    0.3752    0.1728
 H    0.3080    0.4715    0.2399
 H    0.1860    0.3466    0.1700
 H    0.2705    0.3663    0.0969
 C    0.6346    0.9082    0.1273
 N    0.6029    0.8600    0.1564
 N    0.6542    0.8739    0.0799
 C    0.6061    0.8088    0.1286
 C    0.6370    0.8170    0.0829
 H    0.6409    0.9527    0.1374
 H    0.6481    0.7861    0.0522
 H    0.5861    0.7695    0.1433
 C    0.0959    0.5073    0.2478
 N    0.1468    0.4840    0.2793
 N    0.1063    0.5701    0.2564
 C    0.1785    0.5283    0.3014
 C    0.1542    0.5801    0.2876
 H    0.0627    0.4851    0.2261
 H    0.1674    0.6236    0.2982
 H    0.2162    0.5200    0.3259
Zn    0.3624    0.5753    0.3529
Zn    0.0928    0.1676    0.1362
 C    0.1287    0.0499    0.1345
 N    0.1161    0.0027    0.0954
 N    0.1167    0.1009    0.0986
 C    0.1003    0.0242    0.0465
 C    0.1008    0.0834    0.0483
 H    0.1418    0.0481    0.1753
 H    0.0908    0.1143    0.0172
 H    0.0898    0.9958    0.0136
 C    0.5575    0.7875    0.3376
 N    0.5758    0.8048    0.2814
 N    0.5925    0.7337    0.3427
 C    0.6148    0.7656    0.2611
 C    0.6248    0.7231    0.2978
 H    0.5285    0.8080    0.3649
 H    0.6534    0.6860    0.2950
 H    0.6337    0.7705    0.2219
 C    0.0918    0.1346    0.2523
 N    0.1400    0.1029    0.2814
 N    0.1261    0.1542    0.2049
 C    0.1912    0.1061    0.2536
 C    0.1830    0.1370    0.2079
 H    0.0473    0.1409    0.2624
 H    0.2139    0.1481    0.1772
 H    0.2305    0.0861    0.2683
 C    0.4927    0.5959    0.3728
 N    0.5160    0.6468    0.4043
 N    0.4299    0.6063    0.3814
 C    0.4717    0.6785    0.4264
 C    0.4199    0.6542    0.4126
 H    0.5149    0.5627    0.3511
 H    0.3764    0.6674    0.4232
 H    0.4800    0.7162    0.4509
Zn    0.9247    0.3624    0.2279
Zn    0.3324    0.0928    0.0112
 C    0.4501    0.1287    0.0095
 N    0.4973    0.1161    0.4704
 N    0.3991    0.1167    0.4736
 C    0.4758    0.1003    0.4215
 C    0.4166    0.1008    0.4233
 H    0.4519    0.1418    0.0503
 H    0.3857    0.0908    0.3922
 H    0.5042    0.0898    0.3886
 C    0.7125    0.5575    0.2126
 N    0.6952    0.5758    0.1564
 N    0.7663    0.5925    0.2177
 C    0.7344    0.6148    0.1361
 C    0.7769    0.6248    0.1728
 H    0.6920    0.5285    0.2399
 H    0.8140    0.6534    0.1700
 H    0.7295    0.6337    0.0969
 C    0.3654    0.0918    0.1273
 N    0.3971    0.1400    0.1564
 N    0.3458    0.1261    0.0799
 C    0.3939    0.1912    0.1286
 C    0.3630    0.1830    0.0829
 H    0.3591    0.0473    0.1374
 H    0.3519    0.2139    0.0522
 H    0.4139    0.2305    0.1433
 C    0.9041    0.4927    0.2478
 N    0.8532    0.5160    0.2793
 N    0.8937    0.4299    0.2564
 C    0.8215    0.4717    0.3014
 C    0.8458    0.4199    0.2876
 H    0.9373    0.5149    0.2261
 H    0.8326    0.3764    0.2982
 H    0.7838    0.4800    0.3259
Zn    0.6376    0.4247    0.3529
Zn    0.9072    0.8324    0.1362
 C    0.8713    0.9501    0.1345
 N    0.8839    0.9973    0.0954
 N    0.8833    0.8991    0.0986
 C    0.8997    0.9758    0.0465
 C    0.8992    0.9166    0.0483
 H    0.8582    0.9519    0.1753
 H    0.9092    0.8857    0.0172
 H    0.9102    0.0042    0.0136
 C    0.4425    0.2125    0.3376
 N    0.4242    0.1952    0.2814
 N    0.4075    0.2663    0.3427
 C    0.3852    0.2344    0.2611
 C    0.3752    0.2769    0.2978
 H    0.4715    0.1920    0.3649
 H    0.3466    0.3140    0.2950
 H    0.3663    0.2295    0.2219
 C    0.9082    0.8654    0.2523
 N    0.8600    0.8971    0.2814
 N    0.8739    0.8458    0.2049
 C    0.8088    0.8939    0.2536
 C    0.8170    0.8630    0.2079
 H    0.9527    0.8591    0.2624
 H    0.7861    0.8519    0.1772
 H    0.7695    0.9139    0.2683
 C    0.5073    0.4041    0.3728
 N    0.4840    0.3532    0.4043
 N    0.5701    0.3937    0.3814
 C    0.5283    0.3215    0.4264
 C    0.5801    0.3458    0.4126
 H    0.4851    0.4373    0.3511
 H    0.6236    0.3326    0.4232
 H    0.5200    0.2838    0.4509
Zn    0.9247    0.6376    0.4779
Zn    0.3324    0.9072    0.2612
 C    0.4501    0.8713    0.2595
 N    0.4973    0.8839    0.2204
 N    0.3991    0.8833    0.2236
 C    0.4758    0.8997    0.1715
 C    0.4166    0.8992    0.1733
 H    0.4519    0.8582    0.3003
 H    0.3857    0.9092    0.1422
 H    0.5042    0.9102    0.1386
 C    0.7125    0.4425    0.4626
 N    0.6952    0.4242    0.4064
 N    0.7663    0.4075    0.4677
 C    0.7344    0.3852    0.3861
 C    0.7769    0.3752    0.4228
 H    0.6920    0.4715    0.4899
 H    0.8140    0.3466    0.4200
 H    0.7295    0.3663    0.3469
 C    0.3654    0.9082    0.3773
 N    0.3971    0.8600    0.4064
 N    0.3458    0.8739    0.3299
 C    0.3939    0.8088    0.3786
 C    0.3630    0.8170    0.3329
 H    0.3591    0.9527    0.3874
 H    0.3519    0.7861    0.3022
 H    0.4139    0.7695    0.3933
 C    0.9041    0.5073    0.4978
 N    0.8532    0.4840    0.0293
 N    0.8937    0.5701    0.0064
 C    0.8215    0.5283    0.0514
 C    0.8458    0.5801    0.0376
 H    0.9373    0.4851    0.4761
 H    0.8326    0.6236    0.0482
 H    0.7838    0.5200    0.0759
Zn    0.0753    0.3624    0.4779
Zn    0.6676    0.0928    0.2612
 C    0.5499    0.1287    0.2595
 N    0.5027    0.1161    0.2204
 N    0.6009    0.1167    0.2236
 C    0.5242    0.1003    0.1715
 C    0.5834    0.1008    0.1733
 H    0.5481    0.1418    0.3003
 H    0.6143    0.0908    0.1422
 H    0.4958    0.0898    0.1386
 C    0.2875    0.5575    0.4626
 N    0.3048    0.5758    0.4064
 N    0.2337    0.5925    0.4677
 C    0.2656    0.6148    0.3861
 C    0.2231    0.6248    0.4228
 H    0.3080    0.5285    0.4899
 H    0.1860    0.6534    0.4200
 H    0.2705    0.6337    0.3469
 C    0.6346    0.0918    0.3773
 N    0.6029    0.1400    0.4064
 N    0.6542    0.1261    0.3299
 C    0.6061    0.1912    0.3786
 C    0.6370    0.1830    0.3329
 H    0.6409    0.0473    0.3874
 H    0.6481    0.2139    0.3022
 H    0.5861    0.2305    0.3933
 C    0.0959    0.4927    0.4978
 N    0.1468    0.5160    0.0293
 N    0.1063    0.4299    0.0064
 C    0.1785    0.4717    0.0514
 C    0.1542    0.4199    0.0376
 H    0.0627    0.5149    0.4761
 H    0.1674    0.3764    0.0482
 H    0.2162    0.4800    0.0759
Zn    0.8624    0.9247    0.3529
Zn    0.5928    0.3324    0.1362
 C    0.6287    0.4501    0.1345
 N    0.6161    0.4973    0.0954
 N    0.6167    0.3991    0.0986
 C    0.6003    0.4758    0.0465
 C    0.6008    0.4166    0.0483
 H    0.6418    0.4519    0.1753
 H    0.5908    0.3857    0.0172
 H    0.5898    0.5042    0.0136
 C    0.0575    0.7125    0.3376
 N    0.0758    0.6952    0.2814
 N    0.0925    0.7663    0.3427
 C    0.1148    0.7344    0.2611
 C    0.1248    0.7769    0.2978
 H    0.0285    0.6920    0.3649
 H    0.1534    0.8140    0.2950
 H    0.1337    0.7295    0.2219
 C    0.5918    0.3654    0.2523
 N    0.6400    0.3971    0.2814
 N    0.6261    0.3458    0.2049
 C    0.6912    0.3939    0.2536
 C    0.6830    0.3630    0.2079
 H    0.5473    0.3591    0.2624
 H    0.7139    0.3519    0.1772
 H    0.7305    0.4139    0.2683
 C    0.9927    0.9041    0.3728
 N    0.0160    0.8532    0.4043
 N    0.9299    0.8937    0.3814
 C    0.9717    0.8215    0.4264
 C    0.9199    0.8458    0.4126
 H    0.0149    0.9373    0.3511
 H    0.8764    0.8326    0.4232
 H    0.9800    0.7838    0.4509
Zn    0.1376    0.0753    0.3529
Zn    0.4072    0.6676    0.1362
 C    0.3713    0.5499    0.1345
 N    0.3839    0.5027    0.0954
 N    0.3833    0.6009    0.0986
 C    0.3997    0.5242    0.0465
 C    0.3992    0.5834    0.0483
 H    0.3582    0.5481    0.1753
 H    0.4092    0.6143    0.0172
 H    0.4102    0.4958    0.0136
 C    0.9425    0.2875    0.3376
 N    0.9242    0.3048    0.2814
 N    0.9075    0.2337    0.3427
 C    0.8852    0.2656    0.2611
 C    0.8752    0.2231    0.2978
 H    0.9715    0.3080    0.3649
 H    0.8466    0.1860    0.2950
 H    0.8663    0.2705    0.2219
 C    0.4082    0.6346    0.2523
 N    0.3600    0.6029    0.2814
 N    0.3739    0.6542    0.2049
 C    0.3088    0.6061    0.2536
 C    0.3170    0.6370    0.2079
 H    0.4528    0.6409    0.2624
 H    0.2861    0.6481    0.1772
 H    0.2695    0.5861    0.2683
 C    0.0073    0.0959    0.3728
 N    0.9840    0.1468    0.4043
 N    0.0701    0.1063    0.3814
 C    0.0283    0.1785    0.4264
 C    0.0801    0.1542    0.4126
 H    0.9851    0.0627    0.3511
 H    0.1236    0.1674    0.4232
 H    0.0200    0.2162    0.4509
Zn    0.5753    0.1376    0.4779
Zn    0.1676    0.4072    0.2612
 C    0.0499    0.3713    0.2595
 N    0.0027    0.3839    0.2204
 N    0.1009    0.3833    0.2236
 C    0.0242    0.3997    0.1715
 C    0.0834    0.3992    0.1733
 H    0.0481    0.3582    0.3003
 H    0.1143    0.4092    0.1422
 H    0.9958    0.4102    0.1386
 C    0.7875    0.9425    0.4626
 N    0.8048    0.9242    0.4064
 N    0.7337    0.9075    0.4677
 C    0.7656    0.8852    0.3861
 C    0.7231    0.8752    0.4228
 H    0.8080    0.9715    0.4899
 H    0.6860    0.8466    0.4200
 H    0.7705    0.8663    0.3469
 C    0.1346    0.4082    0.3773
 N    0.1029    0.3600    0.4064
 N    0.1542    0.3739    0.3299
 C    0.1061    0.3088    0.3786
 C    0.1370    0.3170    0.3329
 H    0.1409    0.4527    0.3874
 H    0.1481    0.2861    0.3022
 H    0.0861    0.2695    0.3933
 C    0.5959    0.0073    0.4978
 N    0.6468    0.9840    0.0293
 N    0.6063    0.0701    0.0064
 C    0.6785    0.0283    0.0514
 C    0.6542    0.0801    0.0376
 H    0.5627    0.9851    0.4761
 H    0.6674    0.1236    0.0482
 H    0.7162    0.0200    0.0759
Zn    0.8624    0.0753    0.1029
Zn    0.5928    0.6676    0.3862
 C    0.6287    0.5499    0.3845
 N    0.6161    0.5027    0.3454
 N    0.6167    0.6009    0.3486
 C    0.6003    0.5242    0.2965
 C    0.6008    0.5834    0.2983
 H    0.6418    0.5481    0.4253
 H    0.5908    0.6143    0.2672
 H    0.5898    0.4958    0.2636
 C    0.0575    0.2875    0.0876
 N    0.0758    0.3048    0.0314
 N    0.0925    0.2337    0.0927
 C    0.1148    0.2656    0.0111
 C    0.1248    0.2231    0.0478
 H    0.0285    0.3080    0.1149
 H    0.1534    0.1860    0.0450
 H    0.1337    0.2705    0.4719
 C    0.5918    0.6346    0.0023
 N    0.6400    0.6029    0.0314
 N    0.6261    0.6542    0.4549
 C    0.6912    0.6061    0.0036
 C    0.6830    0.6370    0.4579
 H    0.5473    0.6409    0.0124
 H    0.7139    0.6481    0.4272
 H    0.7305    0.5861    0.0183
 C    0.9927    0.0959    0.1228
 N    0.0160    0.1468    0.1543
 N    0.9299    0.1063    0.1314
 C    0.9717    0.1785    0.1764
 C    0.9199    0.1542    0.1626
 H    0.0149    0.0627    0.1011
 H    0.8764    0.1674    0.1732
 H    0.9800    0.2162    0.2009
Zn    0.4247    0.8624    0.4779
Zn    0.8324    0.5928    0.2612
 C    0.9501    0.6287    0.2595
 N    0.9973    0.6161    0.2204
 N    0.8991    0.6167    0.2236
 C    0.9758    0.6003    0.1715
 C    0.9166    0.6008    0.1733
 H    0.9519    0.6418    0.3003
 H    0.8857    0.5908    0.1422
 H    0.0042    0.5898    0.1386
 C    0.2125    0.0575    0.4626
 N    0.1952    0.0758    0.4064
 N    0.2663    0.0925    0.4677
 C    0.2344    0.1148    0.3861
 C    0.2769    0.1248    0.4228
 H    0.1920    0.0285    0.4899
 H    0.3140    0.1534    0.4200
 H    0.2295    0.1337    0.3469
 C    0.8654    0.5918    0.3773
 N    0.8971    0.6400    0.4064
 N    0.8458    0.6261    0.3299
 C    0.8939    0.6912    0.3786
 C    0.8630    0.6830    0.3329
 H    0.8591    0.5473    0.3874
 H    0.8519    0.7139    0.3022
 H    0.9139    0.7305    0.3933
 C    0.4041    0.9927    0.4978
 N    0.3532    0.0160    0.0293
 N    0.3937    0.9299    0.0064
 C    0.3215    0.9717    0.0514
 C    0.3458    0.9199    0.0376
 H    0.4373    0.0149    0.4761
 H    0.3326    0.8764    0.0482
 H    0.2838    0.9800    0.0759
Zn    0.1376    0.9247    0.1029
Zn    0.4072    0.3324    0.3862
 C    0.3713    0.4501    0.3845
 N    0.3839    0.4973    0.3454
 N    0.3833    0.3991    0.3486
 C    0.3997    0.4758    0.2965
 C    0.3992    0.4166    0.2983
 H    0.3582    0.4519    0.4253
 H    0.4092    0.3857    0.2672
 H    0.4102    0.5042    0.2636
 C    0.9425    0.7125    0.0876
 N    0.9242    0.6952    0.0314
 N    0.9075    0.7663    0.0927
 C    0.8852    0.7344    0.0111
 C    0.8752    0.7769    0.0478
 H    0.9715    0.6920    0.1149
 H    0.8466    0.8140    0.0450
 H    0.8663    0.7295    0.4719
 C    0.4082    0.3654    0.0023
 N    0.3600    0.3971    0.0314
 N    0.3739    0.3458    0.4549
 C    0.3088    0.3939    0.0036
 C    0.3170    0.3630    0.4579
 H    0.4528    0.3591    0.0124
 H    0.2861    0.3519    0.4272
 H    0.2695    0.4139    0.0183
 C    0.0073    0.9041    0.1228
 N    0.9840    0.8532    0.1543
 N    0.0701    0.8937    0.1314
 C    0.0283    0.8215    0.1764
 C    0.0801    0.8458    0.1626
 H    0.9851    0.9373    0.1011
 H    0.1236    0.8326    0.1732
 H    0.0200    0.7838    0.2009
Zn    0.4247    0.1376    0.2279
Zn    0.8324    0.4072    0.0112
 C    0.9501    0.3713    0.0095
 N    0.9973    0.3839    0.4704
 N    0.8991    0.3833    0.4736
 C    0.9758    0.3997    0.4215
 C    0.9166    0.3992    0.4233
 H    0.9519    0.3582    0.0503
 H    0.8857    0.4092    0.3922
 H    0.0042    0.4102    0.3886
 C    0.2125    0.9425    0.2126
 N    0.1952    0.9242    0.1564
 N    0.2663    0.9075    0.2177
 C    0.2344    0.8852    0.1361
 C    0.2769    0.8752    0.1728
 H    0.1920    0.9715    0.2399
 H    0.3140    0.8466    0.1700
 H    0.2295    0.8663    0.0969
 C    0.8654    0.4082    0.1273
 N    0.8971    0.3600    0.1564
 N    0.8458    0.3739    0.0799
 C    0.8939    0.3088    0.1286
 C    0.8630    0.3170    0.0829
 H    0.8591    0.4527    0.1374
 H    0.8519    0.2861    0.0522
 H    0.9139    0.2695    0.1433
 C    0.4041    0.0073    0.2478
 N    0.3532    0.9840    0.2793
 N    0.3937    0.0701    0.2564
 C    0.3215    0.0283    0.3014
 C    0.3458    0.0801    0.2876
 H    0.4373    0.9851    0.2261
 H    0.3326    0.1236    0.2982
 H    0.2838    0.0200    0.3259
Zn    0.5753    0.8624    0.2279
Zn    0.1676    0.5928    0.0112
 C    0.0499    0.6287    0.0095
 N    0.0027    0.6161    0.4704
 N    0.1009    0.6167    0.4736
 C    0.0242    0.6003    0.4215
 C    0.0834    0.6008    0.4233
 H    0.0481    0.6418    0.0503
 H    0.1143    0.5908    0.3922
 H    0.9958    0.5898    0.3886
 C    0.7875    0.0575    0.2126
 N    0.8048    0.0758    0.1564
 N    0.7337    0.0925    0.2177
 C    0.7656    0.1148    0.1361
 C    0.7231    0.1248    0.1728
 H    0.8080    0.0285    0.2399
 H    0.6860    0.1534    0.1700
 H    0.7705    0.1337    0.0969
 C    0.1346    0.5918    0.1273
 N    0.1029    0.6400    0.1564
 N    0.1542    0.6261    0.0799
 C    0.1061    0.6912    0.1286
 C    0.1370    0.6830    0.0829
 H    0.1409    0.5473    0.1374
 H    0.1481    0.7139    0.0522
 H    0.0861    0.7305    0.1433
 C    0.5959    0.9927    0.2478
 N    0.6468    0.0160    0.2793
 N    0.6063    0.9299    0.2564
 C    0.6785    0.9717    0.3014
 C    0.6542    0.9199    0.2876
 H    0.5627    0.0149    0.2261
 H    0.6674    0.8764    0.2982
 H    0.7162    0.9800    0.3259
Zn    0.3624    0.4247    0.1029
Zn    0.0928    0.8324    0.3862
 C    0.1287    0.9501    0.3845
 N    0.1161    0.9973    0.3454
 N    0.1167    0.8991    0.3486
 C    0.1003    0.9758    0.2965
 C    0.1008    0.9166    0.2983
 H    0.1418    0.9519    0.4253
 H    0.0908    0.8857    0.2672
 H    0.0898    0.0042    0.2636
 C    0.5575    0.2125    0.0876
 N    0.5758    0.1952    0.0314
 N    0.5925    0.2663    0.0927
 C    0.6148    0.2344    0.0111
 C    0.6248    0.2769    0.0478
 H    0.5285    0.1920    0.1149
 H    0.6534    0.3140    0.0450
 H    0.6337    0.2295    0.4719
 C    0.0918    0.8654    0.0023
 N    0.1400    0.8971    0.0314
 N    0.1261    0.8458    0.4549
 C    0.1912    0.8939    0.0036
 C    0.1830    0.8630    0.4579
 H    0.0473    0.8591    0.0124
 H    0.2139    0.8519    0.4272
 H    0.2305    0.9139    0.0183
 C    0.4927    0.4041    0.1228
 N    0.5160    0.3532    0.1543
 N    0.4299    0.3937    0.1314
 C    0.4717    0.3215    0.1764
 C    0.4199    0.3458    0.1626
 H    0.5149    0.4373    0.1011
 H    0.3764    0.3326    0.1732
 H    0.4800    0.2838    0.2009
Zn    0.6376    0.5753    0.1029
Zn    0.9072    0.1676    0.3862
 C    0.8713    0.0499    0.3845
 N    0.8839    0.0027    0.3454
 N    0.8833    0.1009    0.3486
 C    0.8997    0.0242    0.2965
 C    0.8992    0.0834    0.2983
 H    0.8582    0.0481    0.4253
 H    0.9092    0.1143    0.2672
 H    0.9102    0.9958    0.2636
 C    0.4425    0.7875    0.0876
 N    0.4242    0.8048    0.0314
 N    0.4075    0.7337    0.0927
 C    0.3852    0.7656    0.0111
 C    0.3752    0.7231    0.0478
 H    0.4715    0.8080    0.1149
 H    0.3466    0.6860    0.0450
 H    0.3663    0.7705    0.4719
 C    0.9082    0.1346    0.0023
 N    0.8600    0.1029    0.0314
 N    0.8739    0.1542    0.4549
 C    0.8088    0.1061    0.0036
 C    0.8170    0.1370    0.4579
 H    0.9527    0.1409    0.0124
 H    0.7861    0.1481    0.4272
 H    0.7695    0.0861    0.0183
 C    0.5073    0.5959    0.1228
 N    0.4840    0.6468    0.1543
 N    0.5701    0.6063    0.1314
 C    0.5283    0.6785    0.1764
 C    0.5801    0.6542    0.1626
 H    0.4851    0.5627    0.1011
 H    0.6236    0.6674    0.1732
 H    0.5200    0.7162    0.2009
Zn    0.0753    0.6376    0.7279
Zn    0.6676    0.9072    0.5112
 C    0.5499    0.8713    0.5095
 N    0.5027    0.8839    0.9704
 N    0.6009    0.8833    0.9736
 C    0.5242    0.8997    0.9215
 C    0.5834    0.8992    0.9233
 H    0.5481    0.8582    0.5503
 H    0.6143    0.9092    0.8922
 H    0.4958    0.9102    0.8886
 C    0.2875    0.4425    0.7126
 N    0.3048    0.4242    0.6564
 N    0.2337    0.4075    0.7177
 C    0.2656    0.3852    0.6361
 C    0.2231    0.3752    0.6728
 H    0.3080    0.4715    0.7399
 H    0.1860    0.3466    0.6700
 H    0.2705    0.3663    0.5969
 C    0.6346    0.9082    0.6273
 N    0.6029    0.8600    0.6564
 N    0.6542    0.8739    0.5799
 C    0.6061    0.8088    0.6286
 C    0.6370    0.8170    0.5829
 H    0.6409    0.9527    0.6374
 H    0.6481    0.7861    0.5522
 H    0.5861    0.7695    0.6433
 C    0.0959    0.5073    0.7478
 N    0.1468    0.4840    0.7793
 N    0.1063    0.5701    0.7564
 C    0.1785    0.5283    0.8014
 C    0.1542    0.5801    0.7876
 H    0.0627    0.4851    0.7261
 H    0.1674    0.6236    0.7982
 H    0.2162    0.5200    0.8259
Zn    0.3624    0.5753    0.8529
Zn    0.0928    0.1676    0.6362
 C    0.1287    0.0499    0.6345
 N    0.1161    0.0027    0.5954
 N    0.1167    0.1009    0.5986
 C    0.1003    0.0242    0.5465
 C    0.1008    0.0834    0.5483
 H    0.1418    0.0481    0.6753
 H    0.0908    0.1143    0.5172
 H    0.0898    0.9958    0.5136
 C    0.5575    0.7875    0.8376
 N    0.5758    0.8048    0.7814
 N    0.5925    0.7337    0.8427
 C    0.6148    0.7656    0.7611
 C    0.6248    0.7231    0.7978
 H    0.5285    0.8080    0.8649
 H    0.6534    0.6860    0.7950
 H    0.6337    0.7705    0.7219
 C    0.0918    0.1346    0.7523
 N    0.1400    0.1029    0.7814
 N    0.1261    0.1542    0.7049
 C    0.1912    0.1061    0.7536
 C    0.1830    0.1370    0.7079
 H    0.0473    0.1409    0.7624
 H    0.2139    0.1481    0.6772
 H    0.2305    0.0861    0.7683
 C    0.4927    0.5959    0.8728
 N    0.5160    0.6468    0.9043
 N    0.4299    0.6063    0.8814
 C    0.4717    0.6785    0.9264
 C    0.4199    0.6542    0.9126
 H    0.5149    0.5627    0.8511
 H    0.3764    0.6674    0.9232
 H    0.4800    0.7162    0.9509
Zn    0.9247    0.3624    0.7279
Zn    0.3324    0.0928    0.5112
 C    0.4501    0.1287    0.5095
 N    0.4973    0.1161    0.9704
 N    0.3991    0.1167    0.9736
 C    0.4758    0.1003    0.9215
 C    0.4166    0.1008    0.9233
 H    0.4519    0.1418    0.5503
 H    0.3857    0.0908    0.8922
 H    0.5042    0.0898    0.8886
 C    0.7125    0.5575    0.7126
 N    0.6952    0.5758    0.6564
 N    0.7663    0.5925    0.7177
 C    0.7344    0.6148    0.6361
 C    0.7769    0.6248    0.6728
 H    0.6920    0.5285    0.7399
 H    0.8140    0.6534    0.6700
 H    0.7295    0.6337    0.5969
 C    0.3654    0.0918    0.6273
 N    0.3971    0.1400    0.6564
 N    0.3458    0.1261    0.5799
 C    0.3939    0.1912    0.6286
 C    0.3630    0.1830    0.5829
 H    0.3591    0.0473    0.6374
 H    0.3519    0.2139    0.5522
 H    0.4139    0.2305    0.6433
 C    0.9041    0.4927    0.7478
 N    0.8532    0.5160    0.7793
 N    0.8937    0.4299    0.7564
 C    0.8215    0.4717    0.8014
 C    0.8458    0.4199    0.7876
 H    0.9373    0.5149    0.7261
 H    0.8326    0.3764    0.7982
 H    0.7838    0.4800    0.8259
Zn    0.6376    0.4247    0.8529
Zn    0.9072    0.8324    0.6362
 C    0.8713    0.9501    0.6345
 N    0.8839    0.9973    0.5954
 N    0.8833    0.8991    0.5986
 C    0.8997    0.9758    0.5465
 C    0.8992    0.9166    0.5483
 H    0.8582    0.9519    0.6753
 H    0.9092    0.8857    0.5172
 H    0.9102    0.0042    0.5136
 C    0.4425    0.2125    0.8376
 N    0.4242    0.1952    0.7814
 N    0.4075    0.2663    0.8427
 C    0.3852    0.2344    0.7611
 C    0.3752    0.2769    0.7978
 H    0.4715    0.1920    0.8649
 H    0.3466    0.3140    0.7950
 H    0.3663    0.2295    0.7219
 C    0.9082    0.8654    0.7523
 N    0.8600    0.8971    0.7814
 N    0.8739    0.8458    0.7049
 C    0.8088    0.8939    0.7536
 C    0.8170    0.8630    0.7079
 H    0.9527    0.8591    0.7624
 H    0.7861    0.8519    0.6772
 H    0.7695    0.9139    0.7683
 C    0.5073    0.4041    0.8728
 N    0.4840    0.3532    0.9043
 N    0.5701    0.3937    0.8814
 C    0.5283    0.3215    0.9264
 C    0.5801    0.3458    0.9126
 H    0.4851    0.4373    0.8511
 H    0.6236    0.3326    0.9232
 H    0.5200    0.2838    0.9509
Zn    0.9247    0.6376    0.9779
Zn    0.3324    0.9072    0.7612
 C    0.4501    0.8713    0.7595
 N    0.4973    0.8839    0.7204
 N    0.3991    0.8833    0.7236
 C    0.4758    0.8997    0.6715
 C    0.4166    0.8992    0.6733
 H    0.4519    0.8582    0.8003
 H    0.3857    0.9092    0.6422
 H    0.5042    0.9102    0.6386
 C    0.7125    0.4425    0.9626
 N    0.6952    0.4242    0.9064
 N    0.7663    0.4075    0.9677
 C    0.7344    0.3852    0.8861
 C    0.7769    0.3752    0.9228
 H    0.6920    0.4715    0.9899
 H    0.8140    0.3466    0.9200
 H    0.7295    0.3663    0.8469
 C    0.3654    0.9082    0.8773
 N    0.3971    0.8600    0.9064
 N    0.3458    0.8739    0.8299
 C    0.3939    0.8088    0.8786
 C    0.3630    0.8170    0.8329
 H    0.3591    0.9527    0.8874
 H    0.3519    0.7861    0.8022
 H    0.4139    0.7695    0.8933
 C    0.9041    0.5073    0.9978
 N    0.8532    0.4840    0.5293
 N    0.8937    0.5701    0.5064
 C    0.8215    0.5283    0.5514
 C    0.8458    0.5801    0.5376
 H    0.9373    0.4851    0.9761
 H    0.8326    0.6236    0.5482
 H    0.7838    0.5200    0.5759
Zn    0.0753    0.3624    0.9779
Zn    0.6676    0.0928    0.7612
 C    0.5499    0.1287    0.7595
 N    0.5027    0.1161    0.7204
 N    0.6009    0.1167    0.7236
 C    0.5242    0.1003    0.6715
 C    0.5834    0.1008    0.6733
 H    0.5481    0.1418    0.8003
 H    0.6143    0.0908    0.6422
 H    0.4958    0.0898    0.6386
 C    0.2875    0.5575    0.9626
 N    0.3048    0.5758    0.9064
 N    0.2337    0.5925    0.9677
 C    0.2656    0.6148    0.8861
 C    0.2231    0.6248    0.9228
 H    0.3080    0.5285    0.9899
 H    0.1860    0.6534    0.9200
 H    0.2705    0.6337    0.8469
 C    0.6346    0.0918    0.8773
 N    0.6029    0.1400    0.9064
 N    0.6542    0.1261    0.8299
 C    0.6061    0.1912    0.8786
 C    0.6370    0.1830    0.8329
 H    0.6409    0.0473    0.8874
 H    0.6481    0.2139    0.8022
 H    0.5861    0.2305    0.8933
 C    0.0959    0.4927    0.9978
 N    0.1468    0.5160    0.5293
 N    0.1063    0.4299    0.5064
 C    0.1785    0.4717    0.5514
 C    0.1542    0.4199    0.5376
 H    0.0627    0.5149    0.9761
 H    0.1674    0.3764    0.5482
 H    0.2162    0.4800    0.5759
Zn    0.8624    0.9247    0.8529
Zn    0.5928    0.3324    0.6362
 C    0.6287    0.4501    0.6345
 N    0.6161    0.4973    0.5954
 N    0.6167    0.3991    0.5986
 C    0.6003    0.4758    0.5465
 C    0.6008    0.4166    0.5483
 H    0.6418    0.4519    0.6753
 H    0.5908    0.3857    0.5172
 H    0.5898    0.5042    0.5136
 C    0.0575    0.7125    0.8376
 N    0.0758    0.6952    0.7814
 N    0.0925    0.7663    0.8427
 C    0.1148    0.7344    0.7611
 C    0.1248    0.7769    0.7978
 H    0.0285    0.6920    0.8649
 H    0.1534    0.8140    0.7950
 H    0.1337    0.7295    0.7219
 C    0.5918    0.3654    0.7523
 N    0.6400    0.3971    0.7814
 N    0.6261    0.3458    0.7049
 C    0.6912    0.3939    0.7536
 C    0.6830    0.3630    0.7079
 H    0.5473    0.3591    0.7624
 H    0.7139    0.3519    0.6772
 H    0.7305    0.4139    0.7683
 C    0.9927    0.9041    0.8728
 N    0.0160    0.8532    0.9043
 N    0.9299    0.8937    0.8814
 C    0.9717    0.8215    0.9264
 C    0.9199    0.8458    0.9126
 H    0.0149    0.9373    0.8511
 H    0.8764    0.8326    0.9232
 H    0.9800    0.7838    0.9509
Zn    0.1376    0.0753    0.8529
Zn    0.4072    0.6676    0.6362
 C    0.3713    0.5499    0.6345
 N    0.3839    0.5027    0.5954
 N    0.3833    0.6009    0.5986
 C    0.3997    0.5242    0.5465
 C    0.3992    0.5834    0.5483
 H    0.3582    0.5481    0.6753
 H    0.4092    0.6143    0.5172
 H    0.4102    0.4958    0.5136
 C    0.9425    0.2875    0.8376
 N    0.9242    0.3048    0.7814
 N    0.9075    0.2337    0.8427
 C    0.8852    0.2656    0.7611
 C    0.8752    0.2231    0.7978
 H    0.9715    0.3080    0.8649
 H    0.8466    0.1860    0.7950
 H    0.8663    0.2705    0.7219
 C    0.4082    0.6346    0.7523
 N    0.3600    0.6029    0.7814
 N    0.3739    0.6542    0.7049
 C    0.3088    0.6061    0.7536
 C    0.3170    0.6370    0.7079
 H    0.4528    0.6409    0.7624
 H    0.2861    0.6481    0.6772
 H    0.2695    0.5861    0.7683
 C    0.0073    0.0959    0.8728
 N    0.9840    0.1468    0.9043
 N    0.0701    0.1063    0.8814
 C    0.0283    0.1785    0.9264
 C    0.0801    0.1542    0.9126
 H    0.9851    0.0627    0.8511
 H    0.1236    0.1674    0.9232
 H    0.0200    0.2162    0.9509
Zn    0.5753    0.1376    0.9779
Zn    0.1676    0.4072    0.7612
 C    0.0499    0.3713    0.7595
 N    0.0027    0.3839    0.7204
 N    0.1009    0.3833    0.7236
 C    0.0242    0.3997    0.6715
 C    0.0834    0.3992    0.6733
 H    0.0481    0.3582    0.8003
 H    0.1143    0.4092    0.6422
 H    0.9958    0.4102    0.6386
 C    0.7875    0.9425    0.9626
 N    0.8048    0.9242    0.9064
 N    0.7337    0.9075    0.9677
 C    0.7656    0.8852    0.8861
 C    0.7231    0.8752    0.9228
 H    0.8080    0.9715    0.9899
 H    0.6860    0.8466    0.9200
 H    0.7705    0.8663    0.8469
 C    0.1346    0.4082    0.8773
 N    0.1029    0.3600    0.9064
 N    0.1542    0.3739    0.8299
 C    0.1061    0.3088    0.8786
 C    0.1370    0.3170    0.8329
 H    0.1409    0.4527    0.8874
 H    0.1481    0.2861    0.8022
 H    0.0861    0.2695    0.8933
 C    0.5959    0.0073    0.9978
 N    0.6468    0.9840    0.5293
 N    0.6063    0.0701    0.5064
 C    0.6785    0.0283    0.5514
 C    0.6542    0.0801    0.5376
 H    0.5627    0.9851    0.9761
 H    0.6674    0.1236    0.5482
 H    0.7162    0.0200    0.5759
Zn    0.8624    0.0753    0.6029
Zn    0.5928    0.6676    0.8862
 C    0.6287    0.5499    0.8845
 N    0.6161    0.5027    0.8454
 N    0.6167    0.6009    0.8486
 C    0.6003    0.5242    0.7965
 C    0.6008    0.5834    0.7983
 H    0.6418    0.5481    0.9253
 H    0.5908    0.6143    0.7672
 H    0.5898    0.4958    0.7636
 C    0.0575    0.2875    0.5876
 N    0.0758    0.3048    0.5314
 N    0.0925    0.2337    0.5927
 C    0.1148    0.2656    0.5111
 C    0.1248    0.2231    0.5478
 H    0.0285    0.3080    0.6149
 H    0.1534    0.1860    0.5450
 H    0.1337    0.2705    0.9719
 C    0.5918    0.6346    0.5023
 N    0.6400    0.6029    0.5314
 N    0.6261    0.6542    0.9549
 C    0.6912    0.6061    0.5036
 C    0.6830    0.6370    0.9579
 H    0.5473    0.6409    0.5124
 H    0.7139    0.6481    0.9272
 H    0.7305    0.5861    0.5183
 C    0.9927    0.0959    0.6228
 N    0.0160    0.1468    0.6543
 N    0.9299    0.1063    0.6314
 C    0.9717    0.1785    0.6764
 C    0.9199    0.1542    0.6626
 H    0.0149    0.0627    0.6011
 H    0.8764    0.1674    0.6732
 H    0.9800    0.2162    0.7009
Zn    0.4247    0.8624    0.9779
Zn    0.8324    0.5928    0.7612
 C    0.9501    0.6287    0.7595
 N    0.9973    0.6161    0.7204
 N    0.8991    0.6167    0.7236
 C    0.9758    0.6003    0.6715
 C    0.9166    0.6008    0.6733
 H    0.9519    0.6418    0.8003
 H    0.8857    0.5908    0.6422
 H    0.0042    0.5898    0.6386
 C    0.2125    0.0575    0.9626
 N    0.1952    0.0758    0.9064
 N    0.2663    0.0925    0.9677
 C    0.2344    0.1148    0.8861
 C    0.2769    0.1248    0.9228
 H    0.1920    0.0285    0.9899
 H    0.3140    0.1534    0.9200
 H    0.2295    0.1337    0.8469
 C    0.8654    0.5918    0.8773
 N    0.8971    0.6400    0.9064
 N    0.8458    0.6261    0.8299
 C    0.8939    0.6912    0.8786
 C    0.8630    0.6830    0.8329
 H    0.8591    0.5473    0.8874
 H    0.8519    0.7139    0.8022
 H    0.9139    0.7305    0.8933
 C    0.4041    0.9927    0.9978
 N    0.3532    0.0160    0.5293
 N    0.3937    0.9299    0.5064
 C    0.3215    0.9717    0.5514
 C    0.3458    0.9199    0.5376
 H    0.4373    0.0149    0.9761
 H    0.3326    0.8764    0.5482
 H    0.2838    0.9800    0.5759
Zn    0.1376    0.9247    0.6029
Zn    0.4072    0.3324    0.8862
 C    0.3713    0.4501    0.8845
 N    0.3839    0.4973    0.8454
 N    0.3833    0.3991    0.8486
 C    0.3997    0.4758    0.7965
 C    0.3992    0.4166    0.7983
 H    0.3582    0.4519    0.9253
 H    0.4092    0.3857    0.7672
 H    0.4102    0.5042    0.7636
 C    0.9425    0.7125    0.5876
 N    0.9242    0.6952    0.5314
 N    0.9075    0.7663    0.5927
 C    0.8852    0.7344    0.5111
 C    0.8752    0.7769    0.5478
 H    0.9715    0.6920    0.6149
 H    0.8466    0.8140    0.5450
 H    0.8663    0.7295    0.9719
 C    0.4082    0.3654    0.5023
 N    0.3600    0.3971    0.5314
 N    0.3739    0.3458    0.9549
 C    0.3088    0.3939    0.5036
 C    0.3170    0.3630    0.9579
 H    0.4528    0.3591    0.5124
 H    0.2861    0.3519    0.9272
 H    0.2695    0.4139    0.5183
 C    0.0073    0.9041    0.6228
 N    0.9840    0.8532    0.6543
 N    0.0701    0.8937    0.6314
 C    0.0283    0.8215    0.6764
 C    0.0801    0.8458    0.6626
 H    0.9851    0.9373    0.6011
 H    0.1236    0.8326    0.6732
 H    0.0200    0.7838    0.7009
Zn    0.4247    0.1376    0.7279
Zn    0.8324    0.4072    0.5112
 C    0.9501    0.3713    0.5095
 N    0.9973    0.3839    0.9704
 N    0.8991    0.3833    0.9736
 C    0.9758    0.3997    0.9215
 C    0.9166    0.3992    0.9233
 H    0.9519    0.3582    0.5503
 H    0.8857    0.4092    0.8922
 H    0.0042    0.4102    0.8886
 C    0.2125    0.9425    0.7126
 N    0.1952    0.9242    0.6564
 N    0.2663    0.9075    0.7177
 C    0.2344    0.8852    0.6361
 C    0.2769    0.8752    0.6728
 H    0.1920    0.9715    0.7399
 H    0.3140    0.8466    0.6700
 H    0.2295    0.8663    0.5969
 C    0.8654    0.4082    0.6273
 N    0.8971    0.3600    0.6564
 N    0.8458    0.3739    0.5799
 C    0.8939    0.3088    0.6286
 C    0.8630    0.3170    0.5829
 H    0.8591    0.4527    0.6374
 H    0.8519    0.2861    0.5522
 H    0.9139    0.2695    0.6433
 C    0.4041    0.0073    0.7478
 N    0.3532    0.9840    0.7793
 N    0.3937    0.0701    0.7564
 C    0.3215    0.0283    0.8014
 C    0.3458    0.0801    0.7876
 H    0.4373    0.9851    0.7261
 H    0.3326    0.1236    0.7982
 H    0.2838    0.0200    0.8259
Zn    0.5753    0.8624    0.7279
Zn    0.1676    0.5928    0.5112
 C    0.0499    0.6287    0.5095
 N    0.0027    0.6161    0.9704
 N    0.1009    0.6167    0.9736
 C    0.0242    0.6003    0.9215
 C    0.0834    0.6008    0.9233
 H    0.0481    0.6418    0.5503
 H    0.1143    0.5908    0.8922
 H    0.9958    0.5898    0.8886
 C    0.7875    0.0575    0.7126
 N    0.8048    0.0758    0.6564
 N    0.7337    0.0925    0.7177
 C    0.7656    0.1148    0.6361
 C    0.7231    0.1248    0.6728
 H    0.8080    0.0285    0.7399
 H    0.6860    0.1534    0.6700
 H    0.7705    0.1337    0.5969
 C    0.1346    0.5918    0.6273
 N    0.1029    0.6400    0.6564
 N    0.1542    0.6261    0.5799
 C    0.1061    0.6912    0.6286
 C    0.1370    0.6830    0.5829
 H    0.1409    0.5473    0.6374
 H    0.1481    0.7139    0.5522
 H    0.0861    0.7305    0.6433
 C    0.5959    0.9927    0.7478
 N    0.6468    0.0160    0.7793
 N    0.6063    0.9299    0.7564
 C    0.6785    0.9717    0.8014
 C    0.6542    0.9199    0.7876
 H    0.5627    0.0149    0.7261
 H    0.6674    0.8764    0.7982
 H    0.7162    0.9800    0.8259
Zn    0.3624    0.4247    0.6029
Zn    0.0928    0.8324    0.8862
 C    0.1287    0.9501    0.8845
 N    0.1161    0.9973    0.8454
 N    0.1167    0.8991    0.8486
 C    0.1003    0.9758    0.7965
 C    0.1008    0.9166    0.7983
 H    0.1418    0.9519    0.9253
 H    0.0908    0.8857    0.7672
 H    0.0898    0.0042    0.7636
 C    0.5575    0.2125    0.5876
 N    0.5758    0.1952    0.5314
 N    0.5925    0.2663    0.5927
 C    0.6148    0.2344    0.5111
 C    0.6248    0.2769    0.5478
 H    0.5285    0.1920    0.6149
 H    0.6534    0.3140    0.5450
 H    0.6337    0.2295    0.9719
 C    0.0918    0.8654    0.5023
 N    0.1400    0.8971    0.5314
 N    0.1261    0.8458    0.9549
 C    0.1912    0.8939    0.5036
 C    0.1830    0.8630    0.9579
 H    0.0473    0.8591    0.5124
 H    0.2139    0.8519    0.9272
 H    0.2305    0.9139    0.5183
 C    0.4927    0.4041    0.6228
 N    0.5160    0.3532    0.6543
 N    0.4299    0.3937    0.6314
 C    0.4717    0.3215    0.6764
 C    0.4199    0.3458    0.6626
 H    0.5149    0.4373    0.6011
 H    0.3764    0.3326    0.6732
 H    0.4800    0.2838    0.7009
Zn    0.6376    0.5753    0.6029
Zn    0.9072    0.1676    0.8862
 C    0.8713    0.0499    0.8845
 N    0.8839    0.0027    0.8454
 N    0.8833    0.1009    0.8486
 C    0.8997    0.0242    0.7965
 C    0.8992    0.0834    0.7983
 H    0.8582    0.0481    0.9253
 H    0.9092    0.1143    0.7672
 H    0.9102    0.9958    0.7636
 C    0.4425    0.7875    0.5876
 N    0.4242    0.8048    0.5314
 N    0.4075    0.7337    0.5927
 C    0.3852    0.7656    0.5111
 C    0.3752    0.7231    0.5478
 H    0.4715    0.8080    0.6149
 H    0.3466    0.6860    0.5450
 H    0.3663    0.7705    0.9719
 C    0.9082    0.1346    0.5023
 N    0.8600    0.1029    0.5314
 N    0.8739    0.1542    0.9549
 C    0.8088    0.1061    0.5036
 C    0.8170    0.1370    0.9579
 H    0.9527    0.1409    0.5124
 H    0.7861    0.1481    0.9272
 H    0.7695    0.0861    0.5183
 C    0.5073    0.5959    0.6228
 N    0.4840    0.6468    0.6543
 N    0.5701    0.6063    0.6314
 C    0.5283    0.6785    0.6764
 C    0.5801    0.6542    0.6626
 H    0.4851    0.5627    0.6011
 H    0.6236    0.6674    0.6732
 H    0.5200    0.7162    0.7009


